<?xml version="1.0" encoding="UTF-8"?>

<!-- generated on 07/28/20 19:11:34 by Eclipse SUMO netgenerate Version 1.5.0
<configuration xmlns:xsi="http://www.w3.org/2001/XMLSchema-instance" xsi:noNamespaceSchemaLocation="http://sumo.dlr.de/xsd/netgenerateConfiguration.xsd">

    <grid_network>
        <grid value="true"/>
        <grid.x-number value="21"/>
        <grid.y-number value="2"/>
    </grid_network>

    <output>
        <output-file value="0.net.xml"/>
    </output>

    <processing>
        <perturb-z value="25"/>
    </processing>

    <building_defaults>
        <default.speed value="100"/>
    </building_defaults>

    <random_number>
        <seed value="5379479"/>
    </random_number>

</configuration>
-->

<net version="1.3" junctionCornerDetail="5" limitTurnSpeed="5.50" xmlns:xsi="http://www.w3.org/2001/XMLSchema-instance" xsi:noNamespaceSchemaLocation="http://sumo.dlr.de/xsd/net_file.xsd">

    <location netOffset="0.00,0.00" convBoundary="0.00,0.00,2000.00,100.00" origBoundary="0.00,0.00,2000.00,100.00" projParameter="!"/>

    <edge id=":A0_0" function="internal">
        <lane id=":A0_0_0" index="0" speed="6.08" length="7.93" shape="-1.60,3.20,29.11 -1.30,1.10,28.64 -0.40,-0.40,28.24 1.10,-1.30,27.85 3.20,-1.60,27.37"/>
    </edge>
    <edge id=":A0_1" function="internal">
        <lane id=":A0_1_0" index="0" speed="3.90" length="3.18" shape="3.20,1.60,27.25 2.50,1.70,27.76 2.00,2.00,28.18 1.70,2.50,28.60 1.60,3.20,29.11"/>
    </edge>
    <edge id=":A1_0" function="internal">
        <lane id=":A1_0_0" index="0" speed="6.08" length="7.74" shape="3.20,101.60,35.20 1.10,101.30,35.19 -0.40,100.40,35.19 -1.30,98.90,35.19 -1.60,96.80,35.18"/>
    </edge>
    <edge id=":A1_1" function="internal">
        <lane id=":A1_1_0" index="0" speed="3.90" length="2.58" shape="1.60,96.80,35.18 1.70,97.50,35.19 2.00,98.00,35.19 2.50,98.30,35.20 3.20,98.40,35.21"/>
    </edge>
    <edge id=":B0_0" function="internal">
        <lane id=":B0_0_0" index="0" speed="6.51" length="9.03" shape="98.40,7.20,-19.08 98.05,4.75,-19.08 97.00,3.00,-19.08 95.25,1.95,-19.08 92.80,1.60,-19.08"/>
    </edge>
    <edge id=":B0_1" function="internal">
        <lane id=":B0_1_0" index="0" speed="8.00" length="14.19" shape="98.40,7.20,-19.08 98.95,3.35,-19.08 100.60,0.60,-19.08 103.35,-1.05,-19.08 107.20,-1.60,-19.08"/>
    </edge>
    <edge id=":B0_2" function="internal">
        <lane id=":B0_2_0" index="0" speed="3.65" length="4.67" shape="98.40,7.20,-19.08 99.20,6.00,-19.08 100.00,5.60,-19.08 100.80,6.00,-19.08 101.60,7.20,-19.08"/>
    </edge>
    <edge id=":B0_3" function="internal">
        <lane id=":B0_3_0" index="0" speed="6.51" length="9.03" shape="107.20,1.60,-19.08 104.75,1.95,-19.08 103.00,3.00,-19.08 101.95,4.75,-19.08 101.60,7.20,-19.08"/>
    </edge>
    <edge id=":B0_4" function="internal">
        <lane id=":B0_4_0" index="0" speed="100.00" length="14.40" shape="107.20,1.60,-19.08 92.80,1.60,-19.08"/>
    </edge>
    <edge id=":B0_5" function="internal">
        <lane id=":B0_5_0" index="0" speed="3.65" length="2.34" shape="107.20,1.60,-19.08 106.00,0.80,-19.08 105.60,0.00,-19.08"/>
    </edge>
    <edge id=":B0_9" function="internal">
        <lane id=":B0_9_0" index="0" speed="3.65" length="2.34" shape="105.60,0.00,-19.08 106.00,-0.80,-19.08 107.20,-1.60,-19.08"/>
    </edge>
    <edge id=":B0_6" function="internal">
        <lane id=":B0_6_0" index="0" speed="100.00" length="14.40" shape="92.80,-1.60,-19.08 107.20,-1.60,-19.08"/>
    </edge>
    <edge id=":B0_7" function="internal">
        <lane id=":B0_7_0" index="0" speed="8.00" length="5.93" shape="92.80,-1.60,-19.08 96.65,-1.05,-19.08 98.40,0.00,-19.08"/>
    </edge>
    <edge id=":B0_8" function="internal">
        <lane id=":B0_8_0" index="0" speed="3.65" length="2.34" shape="92.80,-1.60,-19.08 94.00,-0.80,-19.08 94.40,0.00,-19.08"/>
    </edge>
    <edge id=":B0_10" function="internal">
        <lane id=":B0_10_0" index="0" speed="8.00" length="8.26" shape="98.40,0.00,-19.08 99.40,0.60,-19.08 101.05,3.35,-19.08 101.60,7.20,-19.08"/>
    </edge>
    <edge id=":B0_11" function="internal">
        <lane id=":B0_11_0" index="0" speed="3.65" length="2.34" shape="94.40,0.00,-19.08 94.00,0.80,-19.08 92.80,1.60,-19.08"/>
    </edge>
    <edge id=":B1_0" function="internal">
        <lane id=":B1_0_0" index="0" speed="100.00" length="14.40" shape="107.20,101.60,29.75 92.80,101.60,29.94"/>
    </edge>
    <edge id=":B1_1" function="internal">
        <lane id=":B1_1_0" index="0" speed="8.00" length="5.93" shape="107.20,101.60,29.75 103.35,101.05,29.75 101.60,100.00,29.75"/>
    </edge>
    <edge id=":B1_2" function="internal">
        <lane id=":B1_2_0" index="0" speed="3.65" length="2.34" shape="107.20,101.60,29.75 106.00,100.80,29.75 105.60,100.00,29.75"/>
    </edge>
    <edge id=":B1_9" function="internal">
        <lane id=":B1_9_0" index="0" speed="8.00" length="8.26" shape="101.60,100.00,29.75 100.60,99.40,29.75 98.95,96.65,29.75 98.40,92.80,29.75"/>
    </edge>
    <edge id=":B1_10" function="internal">
        <lane id=":B1_10_0" index="0" speed="3.65" length="2.34" shape="105.60,100.00,29.75 106.00,99.20,29.75 107.20,98.40,29.75"/>
    </edge>
    <edge id=":B1_3" function="internal">
        <lane id=":B1_3_0" index="0" speed="6.51" length="9.03" shape="101.60,92.80,29.75 101.95,95.25,29.75 103.00,97.00,29.75 104.75,98.05,29.75 107.20,98.40,29.75"/>
    </edge>
    <edge id=":B1_4" function="internal">
        <lane id=":B1_4_0" index="0" speed="8.00" length="14.19" shape="101.60,92.80,29.75 101.05,96.65,29.80 99.40,99.40,29.84 96.65,101.05,29.88 92.80,101.60,29.94"/>
    </edge>
    <edge id=":B1_5" function="internal">
        <lane id=":B1_5_0" index="0" speed="3.65" length="4.67" shape="101.60,92.80,29.75 100.80,94.00,29.75 100.00,94.40,29.75 99.20,94.00,29.75 98.40,92.80,29.75"/>
    </edge>
    <edge id=":B1_6" function="internal">
        <lane id=":B1_6_0" index="0" speed="6.51" length="9.03" shape="92.80,98.40,29.94 95.25,98.05,29.88 97.00,97.00,29.84 98.05,95.25,29.80 98.40,92.80,29.75"/>
    </edge>
    <edge id=":B1_7" function="internal">
        <lane id=":B1_7_0" index="0" speed="100.00" length="14.40" shape="92.80,98.40,29.94 107.20,98.40,29.75"/>
    </edge>
    <edge id=":B1_8" function="internal">
        <lane id=":B1_8_0" index="0" speed="3.65" length="2.34" shape="92.80,98.40,29.94 94.00,99.20,29.94 94.40,100.00,29.94"/>
    </edge>
    <edge id=":B1_11" function="internal">
        <lane id=":B1_11_0" index="0" speed="3.65" length="2.34" shape="94.40,100.00,29.94 94.00,100.80,29.94 92.80,101.60,29.94"/>
    </edge>
    <edge id=":C0_0" function="internal">
        <lane id=":C0_0_0" index="0" speed="6.51" length="9.03" shape="198.40,7.20,27.80 198.05,4.75,27.80 197.00,3.00,27.80 195.25,1.95,27.80 192.80,1.60,27.80"/>
    </edge>
    <edge id=":C0_1" function="internal">
        <lane id=":C0_1_0" index="0" speed="8.00" length="14.19" shape="198.40,7.20,27.80 198.95,3.35,27.80 200.60,0.60,27.80 203.35,-1.05,27.80 207.20,-1.60,27.80"/>
    </edge>
    <edge id=":C0_2" function="internal">
        <lane id=":C0_2_0" index="0" speed="3.65" length="4.67" shape="198.40,7.20,27.80 199.20,6.00,27.80 200.00,5.60,27.80 200.80,6.00,27.80 201.60,7.20,27.80"/>
    </edge>
    <edge id=":C0_3" function="internal">
        <lane id=":C0_3_0" index="0" speed="6.51" length="9.03" shape="207.20,1.60,27.80 204.75,1.95,27.80 203.00,3.00,27.80 201.95,4.75,27.80 201.60,7.20,27.80"/>
    </edge>
    <edge id=":C0_4" function="internal">
        <lane id=":C0_4_0" index="0" speed="100.00" length="14.40" shape="207.20,1.60,27.80 192.80,1.60,27.80"/>
    </edge>
    <edge id=":C0_5" function="internal">
        <lane id=":C0_5_0" index="0" speed="3.65" length="2.34" shape="207.20,1.60,27.80 206.00,0.80,27.80 205.60,0.00,27.80"/>
    </edge>
    <edge id=":C0_9" function="internal">
        <lane id=":C0_9_0" index="0" speed="3.65" length="2.34" shape="205.60,0.00,27.80 206.00,-0.80,27.80 207.20,-1.60,27.80"/>
    </edge>
    <edge id=":C0_6" function="internal">
        <lane id=":C0_6_0" index="0" speed="100.00" length="14.40" shape="192.80,-1.60,27.80 207.20,-1.60,27.80"/>
    </edge>
    <edge id=":C0_7" function="internal">
        <lane id=":C0_7_0" index="0" speed="8.00" length="5.93" shape="192.80,-1.60,27.80 196.65,-1.05,27.80 198.40,0.00,27.80"/>
    </edge>
    <edge id=":C0_8" function="internal">
        <lane id=":C0_8_0" index="0" speed="3.65" length="2.34" shape="192.80,-1.60,27.80 194.00,-0.80,27.80 194.40,0.00,27.80"/>
    </edge>
    <edge id=":C0_10" function="internal">
        <lane id=":C0_10_0" index="0" speed="8.00" length="8.26" shape="198.40,0.00,27.80 199.40,0.60,27.80 201.05,3.35,27.80 201.60,7.20,27.80"/>
    </edge>
    <edge id=":C0_11" function="internal">
        <lane id=":C0_11_0" index="0" speed="3.65" length="2.34" shape="194.40,0.00,27.80 194.00,0.80,27.80 192.80,1.60,27.80"/>
    </edge>
    <edge id=":C1_0" function="internal">
        <lane id=":C1_0_0" index="0" speed="100.00" length="14.40" shape="207.20,101.60,-44.05 192.80,101.60,-44.05"/>
    </edge>
    <edge id=":C1_1" function="internal">
        <lane id=":C1_1_0" index="0" speed="8.00" length="5.93" shape="207.20,101.60,-44.05 203.35,101.05,-44.05 201.60,100.00,-44.05"/>
    </edge>
    <edge id=":C1_2" function="internal">
        <lane id=":C1_2_0" index="0" speed="3.65" length="2.34" shape="207.20,101.60,-44.05 206.00,100.80,-44.05 205.60,100.00,-44.05"/>
    </edge>
    <edge id=":C1_9" function="internal">
        <lane id=":C1_9_0" index="0" speed="8.00" length="8.26" shape="201.60,100.00,-44.05 200.60,99.40,-44.05 198.95,96.65,-44.05 198.40,92.80,-44.05"/>
    </edge>
    <edge id=":C1_10" function="internal">
        <lane id=":C1_10_0" index="0" speed="3.65" length="2.34" shape="205.60,100.00,-44.05 206.00,99.20,-44.05 207.20,98.40,-44.05"/>
    </edge>
    <edge id=":C1_3" function="internal">
        <lane id=":C1_3_0" index="0" speed="6.51" length="9.03" shape="201.60,92.80,-44.05 201.95,95.25,-44.05 203.00,97.00,-44.05 204.75,98.05,-44.05 207.20,98.40,-44.05"/>
    </edge>
    <edge id=":C1_4" function="internal">
        <lane id=":C1_4_0" index="0" speed="8.00" length="14.19" shape="201.60,92.80,-44.05 201.05,96.65,-44.05 199.40,99.40,-44.05 196.65,101.05,-44.05 192.80,101.60,-44.05"/>
    </edge>
    <edge id=":C1_5" function="internal">
        <lane id=":C1_5_0" index="0" speed="3.65" length="4.67" shape="201.60,92.80,-44.05 200.80,94.00,-44.05 200.00,94.40,-44.05 199.20,94.00,-44.05 198.40,92.80,-44.05"/>
    </edge>
    <edge id=":C1_6" function="internal">
        <lane id=":C1_6_0" index="0" speed="6.51" length="9.03" shape="192.80,98.40,-44.05 195.25,98.05,-44.05 197.00,97.00,-44.05 198.05,95.25,-44.05 198.40,92.80,-44.05"/>
    </edge>
    <edge id=":C1_7" function="internal">
        <lane id=":C1_7_0" index="0" speed="100.00" length="14.40" shape="192.80,98.40,-44.05 207.20,98.40,-44.05"/>
    </edge>
    <edge id=":C1_8" function="internal">
        <lane id=":C1_8_0" index="0" speed="3.65" length="2.34" shape="192.80,98.40,-44.05 194.00,99.20,-44.05 194.40,100.00,-44.05"/>
    </edge>
    <edge id=":C1_11" function="internal">
        <lane id=":C1_11_0" index="0" speed="3.65" length="2.34" shape="194.40,100.00,-44.05 194.00,100.80,-44.05 192.80,101.60,-44.05"/>
    </edge>
    <edge id=":D0_0" function="internal">
        <lane id=":D0_0_0" index="0" speed="6.51" length="9.03" shape="298.40,7.20,22.67 298.05,4.75,22.67 297.00,3.00,22.67 295.25,1.95,22.67 292.80,1.60,22.67"/>
    </edge>
    <edge id=":D0_1" function="internal">
        <lane id=":D0_1_0" index="0" speed="8.00" length="14.19" shape="298.40,7.20,22.67 298.95,3.35,22.67 300.60,0.60,22.67 303.35,-1.05,22.67 307.20,-1.60,22.67"/>
    </edge>
    <edge id=":D0_2" function="internal">
        <lane id=":D0_2_0" index="0" speed="3.65" length="4.67" shape="298.40,7.20,22.67 299.20,6.00,22.67 300.00,5.60,22.67 300.80,6.00,22.67 301.60,7.20,22.67"/>
    </edge>
    <edge id=":D0_3" function="internal">
        <lane id=":D0_3_0" index="0" speed="6.51" length="9.03" shape="307.20,1.60,22.67 304.75,1.95,22.67 303.00,3.00,22.67 301.95,4.75,22.67 301.60,7.20,22.67"/>
    </edge>
    <edge id=":D0_4" function="internal">
        <lane id=":D0_4_0" index="0" speed="100.00" length="14.40" shape="307.20,1.60,22.67 292.80,1.60,22.67"/>
    </edge>
    <edge id=":D0_5" function="internal">
        <lane id=":D0_5_0" index="0" speed="3.65" length="2.34" shape="307.20,1.60,22.67 306.00,0.80,22.67 305.60,0.00,22.67"/>
    </edge>
    <edge id=":D0_9" function="internal">
        <lane id=":D0_9_0" index="0" speed="3.65" length="2.34" shape="305.60,0.00,22.67 306.00,-0.80,22.67 307.20,-1.60,22.67"/>
    </edge>
    <edge id=":D0_6" function="internal">
        <lane id=":D0_6_0" index="0" speed="100.00" length="14.40" shape="292.80,-1.60,22.67 307.20,-1.60,22.67"/>
    </edge>
    <edge id=":D0_7" function="internal">
        <lane id=":D0_7_0" index="0" speed="8.00" length="5.93" shape="292.80,-1.60,22.67 296.65,-1.05,22.67 298.40,-0.00,22.67"/>
    </edge>
    <edge id=":D0_8" function="internal">
        <lane id=":D0_8_0" index="0" speed="3.65" length="2.34" shape="292.80,-1.60,22.67 294.00,-0.80,22.67 294.40,0.00,22.67"/>
    </edge>
    <edge id=":D0_10" function="internal">
        <lane id=":D0_10_0" index="0" speed="8.00" length="8.26" shape="298.40,-0.00,22.67 299.40,0.60,22.67 301.05,3.35,22.67 301.60,7.20,22.67"/>
    </edge>
    <edge id=":D0_11" function="internal">
        <lane id=":D0_11_0" index="0" speed="3.65" length="2.34" shape="294.40,0.00,22.67 294.00,0.80,22.67 292.80,1.60,22.67"/>
    </edge>
    <edge id=":D1_0" function="internal">
        <lane id=":D1_0_0" index="0" speed="100.00" length="14.40" shape="307.20,101.60,19.58 292.80,101.60,19.58"/>
    </edge>
    <edge id=":D1_1" function="internal">
        <lane id=":D1_1_0" index="0" speed="8.00" length="5.93" shape="307.20,101.60,19.58 303.35,101.05,19.58 301.60,100.00,19.58"/>
    </edge>
    <edge id=":D1_2" function="internal">
        <lane id=":D1_2_0" index="0" speed="3.65" length="2.34" shape="307.20,101.60,19.58 306.00,100.80,19.58 305.60,100.00,19.58"/>
    </edge>
    <edge id=":D1_9" function="internal">
        <lane id=":D1_9_0" index="0" speed="8.00" length="8.26" shape="301.60,100.00,19.58 300.60,99.40,19.58 298.95,96.65,19.58 298.40,92.80,19.58"/>
    </edge>
    <edge id=":D1_10" function="internal">
        <lane id=":D1_10_0" index="0" speed="3.65" length="2.34" shape="305.60,100.00,19.58 306.00,99.20,19.58 307.20,98.40,19.58"/>
    </edge>
    <edge id=":D1_3" function="internal">
        <lane id=":D1_3_0" index="0" speed="6.51" length="9.03" shape="301.60,92.80,19.58 301.95,95.25,19.58 303.00,97.00,19.58 304.75,98.05,19.58 307.20,98.40,19.58"/>
    </edge>
    <edge id=":D1_4" function="internal">
        <lane id=":D1_4_0" index="0" speed="8.00" length="14.19" shape="301.60,92.80,19.58 301.05,96.65,19.58 299.40,99.40,19.58 296.65,101.05,19.58 292.80,101.60,19.58"/>
    </edge>
    <edge id=":D1_5" function="internal">
        <lane id=":D1_5_0" index="0" speed="3.65" length="4.67" shape="301.60,92.80,19.58 300.80,94.00,19.58 300.00,94.40,19.58 299.20,94.00,19.58 298.40,92.80,19.58"/>
    </edge>
    <edge id=":D1_6" function="internal">
        <lane id=":D1_6_0" index="0" speed="6.51" length="9.03" shape="292.80,98.40,19.58 295.25,98.05,19.58 297.00,97.00,19.58 298.05,95.25,19.58 298.40,92.80,19.58"/>
    </edge>
    <edge id=":D1_7" function="internal">
        <lane id=":D1_7_0" index="0" speed="100.00" length="14.40" shape="292.80,98.40,19.58 307.20,98.40,19.58"/>
    </edge>
    <edge id=":D1_8" function="internal">
        <lane id=":D1_8_0" index="0" speed="3.65" length="2.34" shape="292.80,98.40,19.58 294.00,99.20,19.58 294.40,100.00,19.58"/>
    </edge>
    <edge id=":D1_11" function="internal">
        <lane id=":D1_11_0" index="0" speed="3.65" length="2.34" shape="294.40,100.00,19.58 294.00,100.80,19.58 292.80,101.60,19.58"/>
    </edge>
    <edge id=":E0_0" function="internal">
        <lane id=":E0_0_0" index="0" speed="6.51" length="9.03" shape="398.40,7.20,-8.96 398.05,4.75,-8.96 397.00,3.00,-8.96 395.25,1.95,-8.96 392.80,1.60,-8.96"/>
    </edge>
    <edge id=":E0_1" function="internal">
        <lane id=":E0_1_0" index="0" speed="8.00" length="14.19" shape="398.40,7.20,-8.96 398.95,3.35,-8.96 400.60,0.60,-8.96 403.35,-1.05,-8.96 407.20,-1.60,-8.96"/>
    </edge>
    <edge id=":E0_2" function="internal">
        <lane id=":E0_2_0" index="0" speed="3.65" length="4.67" shape="398.40,7.20,-8.96 399.20,6.00,-8.96 400.00,5.60,-8.96 400.80,6.00,-8.96 401.60,7.20,-8.96"/>
    </edge>
    <edge id=":E0_3" function="internal">
        <lane id=":E0_3_0" index="0" speed="6.51" length="9.03" shape="407.20,1.60,-8.96 404.75,1.95,-8.96 403.00,3.00,-8.96 401.95,4.75,-8.96 401.60,7.20,-8.96"/>
    </edge>
    <edge id=":E0_4" function="internal">
        <lane id=":E0_4_0" index="0" speed="100.00" length="14.40" shape="407.20,1.60,-8.96 392.80,1.60,-8.96"/>
    </edge>
    <edge id=":E0_5" function="internal">
        <lane id=":E0_5_0" index="0" speed="3.65" length="2.34" shape="407.20,1.60,-8.96 406.00,0.80,-8.96 405.60,0.00,-8.96"/>
    </edge>
    <edge id=":E0_9" function="internal">
        <lane id=":E0_9_0" index="0" speed="3.65" length="2.34" shape="405.60,0.00,-8.96 406.00,-0.80,-8.96 407.20,-1.60,-8.96"/>
    </edge>
    <edge id=":E0_6" function="internal">
        <lane id=":E0_6_0" index="0" speed="100.00" length="14.40" shape="392.80,-1.60,-8.96 407.20,-1.60,-8.96"/>
    </edge>
    <edge id=":E0_7" function="internal">
        <lane id=":E0_7_0" index="0" speed="8.00" length="5.93" shape="392.80,-1.60,-8.96 396.65,-1.05,-8.96 398.40,-0.00,-8.96"/>
    </edge>
    <edge id=":E0_8" function="internal">
        <lane id=":E0_8_0" index="0" speed="3.65" length="2.34" shape="392.80,-1.60,-8.96 394.00,-0.80,-8.96 394.40,0.00,-8.96"/>
    </edge>
    <edge id=":E0_10" function="internal">
        <lane id=":E0_10_0" index="0" speed="8.00" length="8.26" shape="398.40,-0.00,-8.96 399.40,0.60,-8.96 401.05,3.35,-8.96 401.60,7.20,-8.96"/>
    </edge>
    <edge id=":E0_11" function="internal">
        <lane id=":E0_11_0" index="0" speed="3.65" length="2.34" shape="394.40,0.00,-8.96 394.00,0.80,-8.96 392.80,1.60,-8.96"/>
    </edge>
    <edge id=":E1_0" function="internal">
        <lane id=":E1_0_0" index="0" speed="100.00" length="14.40" shape="407.20,101.60,12.09 392.80,101.60,12.09"/>
    </edge>
    <edge id=":E1_1" function="internal">
        <lane id=":E1_1_0" index="0" speed="8.00" length="5.93" shape="407.20,101.60,12.09 403.35,101.05,12.09 401.60,100.00,12.09"/>
    </edge>
    <edge id=":E1_2" function="internal">
        <lane id=":E1_2_0" index="0" speed="3.65" length="2.34" shape="407.20,101.60,12.09 406.00,100.80,12.09 405.60,100.00,12.09"/>
    </edge>
    <edge id=":E1_9" function="internal">
        <lane id=":E1_9_0" index="0" speed="8.00" length="8.26" shape="401.60,100.00,12.09 400.60,99.40,12.09 398.95,96.65,12.09 398.40,92.80,12.09"/>
    </edge>
    <edge id=":E1_10" function="internal">
        <lane id=":E1_10_0" index="0" speed="3.65" length="2.34" shape="405.60,100.00,12.09 406.00,99.20,12.09 407.20,98.40,12.09"/>
    </edge>
    <edge id=":E1_3" function="internal">
        <lane id=":E1_3_0" index="0" speed="6.51" length="9.03" shape="401.60,92.80,12.09 401.95,95.25,12.09 403.00,97.00,12.09 404.75,98.05,12.09 407.20,98.40,12.09"/>
    </edge>
    <edge id=":E1_4" function="internal">
        <lane id=":E1_4_0" index="0" speed="8.00" length="14.19" shape="401.60,92.80,12.09 401.05,96.65,12.09 399.40,99.40,12.09 396.65,101.05,12.09 392.80,101.60,12.09"/>
    </edge>
    <edge id=":E1_5" function="internal">
        <lane id=":E1_5_0" index="0" speed="3.65" length="4.67" shape="401.60,92.80,12.09 400.80,94.00,12.09 400.00,94.40,12.09 399.20,94.00,12.09 398.40,92.80,12.09"/>
    </edge>
    <edge id=":E1_6" function="internal">
        <lane id=":E1_6_0" index="0" speed="6.51" length="9.03" shape="392.80,98.40,12.09 395.25,98.05,12.09 397.00,97.00,12.09 398.05,95.25,12.09 398.40,92.80,12.09"/>
    </edge>
    <edge id=":E1_7" function="internal">
        <lane id=":E1_7_0" index="0" speed="100.00" length="14.40" shape="392.80,98.40,12.09 407.20,98.40,12.09"/>
    </edge>
    <edge id=":E1_8" function="internal">
        <lane id=":E1_8_0" index="0" speed="3.65" length="2.34" shape="392.80,98.40,12.09 394.00,99.20,12.09 394.40,100.00,12.09"/>
    </edge>
    <edge id=":E1_11" function="internal">
        <lane id=":E1_11_0" index="0" speed="3.65" length="2.34" shape="394.40,100.00,12.09 394.00,100.80,12.09 392.80,101.60,12.09"/>
    </edge>
    <edge id=":F0_0" function="internal">
        <lane id=":F0_0_0" index="0" speed="6.51" length="9.03" shape="498.40,7.20,-55.48 498.05,4.75,-55.48 497.00,3.00,-55.48 495.25,1.95,-55.48 492.80,1.60,-55.48"/>
    </edge>
    <edge id=":F0_1" function="internal">
        <lane id=":F0_1_0" index="0" speed="8.00" length="14.19" shape="498.40,7.20,-55.48 498.95,3.35,-55.48 500.60,0.60,-55.48 503.35,-1.05,-55.48 507.20,-1.60,-55.48"/>
    </edge>
    <edge id=":F0_2" function="internal">
        <lane id=":F0_2_0" index="0" speed="3.65" length="4.67" shape="498.40,7.20,-55.48 499.20,6.00,-55.48 500.00,5.60,-55.48 500.80,6.00,-55.48 501.60,7.20,-55.48"/>
    </edge>
    <edge id=":F0_3" function="internal">
        <lane id=":F0_3_0" index="0" speed="6.51" length="9.03" shape="507.20,1.60,-55.48 504.75,1.95,-55.48 503.00,3.00,-55.48 501.95,4.75,-55.48 501.60,7.20,-55.48"/>
    </edge>
    <edge id=":F0_4" function="internal">
        <lane id=":F0_4_0" index="0" speed="100.00" length="14.40" shape="507.20,1.60,-55.48 492.80,1.60,-55.48"/>
    </edge>
    <edge id=":F0_5" function="internal">
        <lane id=":F0_5_0" index="0" speed="3.65" length="2.34" shape="507.20,1.60,-55.48 506.00,0.80,-55.48 505.60,0.00,-55.48"/>
    </edge>
    <edge id=":F0_9" function="internal">
        <lane id=":F0_9_0" index="0" speed="3.65" length="2.34" shape="505.60,0.00,-55.48 506.00,-0.80,-55.48 507.20,-1.60,-55.48"/>
    </edge>
    <edge id=":F0_6" function="internal">
        <lane id=":F0_6_0" index="0" speed="100.00" length="14.40" shape="492.80,-1.60,-55.48 507.20,-1.60,-55.48"/>
    </edge>
    <edge id=":F0_7" function="internal">
        <lane id=":F0_7_0" index="0" speed="8.00" length="5.93" shape="492.80,-1.60,-55.48 496.65,-1.05,-55.48 498.40,-0.00,-55.48"/>
    </edge>
    <edge id=":F0_8" function="internal">
        <lane id=":F0_8_0" index="0" speed="3.65" length="2.34" shape="492.80,-1.60,-55.48 494.00,-0.80,-55.48 494.40,0.00,-55.48"/>
    </edge>
    <edge id=":F0_10" function="internal">
        <lane id=":F0_10_0" index="0" speed="8.00" length="8.26" shape="498.40,-0.00,-55.48 499.40,0.60,-55.48 501.05,3.35,-55.48 501.60,7.20,-55.48"/>
    </edge>
    <edge id=":F0_11" function="internal">
        <lane id=":F0_11_0" index="0" speed="3.65" length="2.34" shape="494.40,0.00,-55.48 494.00,0.80,-55.48 492.80,1.60,-55.48"/>
    </edge>
    <edge id=":F1_0" function="internal">
        <lane id=":F1_0_0" index="0" speed="100.00" length="14.40" shape="507.20,101.60,24.34 492.80,101.60,24.34"/>
    </edge>
    <edge id=":F1_1" function="internal">
        <lane id=":F1_1_0" index="0" speed="8.00" length="5.93" shape="507.20,101.60,24.34 503.35,101.05,24.34 501.60,100.00,24.34"/>
    </edge>
    <edge id=":F1_2" function="internal">
        <lane id=":F1_2_0" index="0" speed="3.65" length="2.34" shape="507.20,101.60,24.34 506.00,100.80,24.34 505.60,100.00,24.34"/>
    </edge>
    <edge id=":F1_9" function="internal">
        <lane id=":F1_9_0" index="0" speed="8.00" length="8.26" shape="501.60,100.00,24.34 500.60,99.40,24.34 498.95,96.65,24.34 498.40,92.80,24.34"/>
    </edge>
    <edge id=":F1_10" function="internal">
        <lane id=":F1_10_0" index="0" speed="3.65" length="2.34" shape="505.60,100.00,24.34 506.00,99.20,24.34 507.20,98.40,24.34"/>
    </edge>
    <edge id=":F1_3" function="internal">
        <lane id=":F1_3_0" index="0" speed="6.51" length="9.03" shape="501.60,92.80,24.34 501.95,95.25,24.34 503.00,97.00,24.34 504.75,98.05,24.34 507.20,98.40,24.34"/>
    </edge>
    <edge id=":F1_4" function="internal">
        <lane id=":F1_4_0" index="0" speed="8.00" length="14.19" shape="501.60,92.80,24.34 501.05,96.65,24.34 499.40,99.40,24.34 496.65,101.05,24.34 492.80,101.60,24.34"/>
    </edge>
    <edge id=":F1_5" function="internal">
        <lane id=":F1_5_0" index="0" speed="3.65" length="4.67" shape="501.60,92.80,24.34 500.80,94.00,24.34 500.00,94.40,24.34 499.20,94.00,24.34 498.40,92.80,24.34"/>
    </edge>
    <edge id=":F1_6" function="internal">
        <lane id=":F1_6_0" index="0" speed="6.51" length="9.03" shape="492.80,98.40,24.34 495.25,98.05,24.34 497.00,97.00,24.34 498.05,95.25,24.34 498.40,92.80,24.34"/>
    </edge>
    <edge id=":F1_7" function="internal">
        <lane id=":F1_7_0" index="0" speed="100.00" length="14.40" shape="492.80,98.40,24.34 507.20,98.40,24.34"/>
    </edge>
    <edge id=":F1_8" function="internal">
        <lane id=":F1_8_0" index="0" speed="3.65" length="2.34" shape="492.80,98.40,24.34 494.00,99.20,24.34 494.40,100.00,24.34"/>
    </edge>
    <edge id=":F1_11" function="internal">
        <lane id=":F1_11_0" index="0" speed="3.65" length="2.34" shape="494.40,100.00,24.34 494.00,100.80,24.34 492.80,101.60,24.34"/>
    </edge>
    <edge id=":G0_0" function="internal">
        <lane id=":G0_0_0" index="0" speed="6.51" length="9.03" shape="598.40,7.20,35.41 598.05,4.75,35.41 597.00,3.00,35.41 595.25,1.95,35.41 592.80,1.60,35.41"/>
    </edge>
    <edge id=":G0_1" function="internal">
        <lane id=":G0_1_0" index="0" speed="8.00" length="14.19" shape="598.40,7.20,35.41 598.95,3.35,35.41 600.60,0.60,35.41 603.35,-1.05,35.41 607.20,-1.60,35.41"/>
    </edge>
    <edge id=":G0_2" function="internal">
        <lane id=":G0_2_0" index="0" speed="3.65" length="4.67" shape="598.40,7.20,35.41 599.20,6.00,35.41 600.00,5.60,35.41 600.80,6.00,35.41 601.60,7.20,35.41"/>
    </edge>
    <edge id=":G0_3" function="internal">
        <lane id=":G0_3_0" index="0" speed="6.51" length="9.03" shape="607.20,1.60,35.41 604.75,1.95,35.41 603.00,3.00,35.41 601.95,4.75,35.41 601.60,7.20,35.41"/>
    </edge>
    <edge id=":G0_4" function="internal">
        <lane id=":G0_4_0" index="0" speed="100.00" length="14.40" shape="607.20,1.60,35.41 592.80,1.60,35.41"/>
    </edge>
    <edge id=":G0_5" function="internal">
        <lane id=":G0_5_0" index="0" speed="3.65" length="2.34" shape="607.20,1.60,35.41 606.00,0.80,35.41 605.60,0.00,35.41"/>
    </edge>
    <edge id=":G0_9" function="internal">
        <lane id=":G0_9_0" index="0" speed="3.65" length="2.34" shape="605.60,0.00,35.41 606.00,-0.80,35.41 607.20,-1.60,35.41"/>
    </edge>
    <edge id=":G0_6" function="internal">
        <lane id=":G0_6_0" index="0" speed="100.00" length="14.40" shape="592.80,-1.60,35.41 607.20,-1.60,35.41"/>
    </edge>
    <edge id=":G0_7" function="internal">
        <lane id=":G0_7_0" index="0" speed="8.00" length="5.93" shape="592.80,-1.60,35.41 596.65,-1.05,35.41 598.40,-0.00,35.41"/>
    </edge>
    <edge id=":G0_8" function="internal">
        <lane id=":G0_8_0" index="0" speed="3.65" length="2.34" shape="592.80,-1.60,35.41 594.00,-0.80,35.41 594.40,0.00,35.41"/>
    </edge>
    <edge id=":G0_10" function="internal">
        <lane id=":G0_10_0" index="0" speed="8.00" length="8.26" shape="598.40,-0.00,35.41 599.40,0.60,35.41 601.05,3.35,35.41 601.60,7.20,35.41"/>
    </edge>
    <edge id=":G0_11" function="internal">
        <lane id=":G0_11_0" index="0" speed="3.65" length="2.34" shape="594.40,0.00,35.41 594.00,0.80,35.41 592.80,1.60,35.41"/>
    </edge>
    <edge id=":G1_0" function="internal">
        <lane id=":G1_0_0" index="0" speed="100.00" length="14.40" shape="607.20,101.60,-32.83 592.80,101.60,-32.83"/>
    </edge>
    <edge id=":G1_1" function="internal">
        <lane id=":G1_1_0" index="0" speed="8.00" length="5.93" shape="607.20,101.60,-32.83 603.35,101.05,-32.83 601.60,100.00,-32.83"/>
    </edge>
    <edge id=":G1_2" function="internal">
        <lane id=":G1_2_0" index="0" speed="3.65" length="2.34" shape="607.20,101.60,-32.83 606.00,100.80,-32.83 605.60,100.00,-32.83"/>
    </edge>
    <edge id=":G1_9" function="internal">
        <lane id=":G1_9_0" index="0" speed="8.00" length="8.26" shape="601.60,100.00,-32.83 600.60,99.40,-32.83 598.95,96.65,-32.83 598.40,92.80,-32.83"/>
    </edge>
    <edge id=":G1_10" function="internal">
        <lane id=":G1_10_0" index="0" speed="3.65" length="2.34" shape="605.60,100.00,-32.83 606.00,99.20,-32.83 607.20,98.40,-32.83"/>
    </edge>
    <edge id=":G1_3" function="internal">
        <lane id=":G1_3_0" index="0" speed="6.51" length="9.03" shape="601.60,92.80,-32.83 601.95,95.25,-32.83 603.00,97.00,-32.83 604.75,98.05,-32.83 607.20,98.40,-32.83"/>
    </edge>
    <edge id=":G1_4" function="internal">
        <lane id=":G1_4_0" index="0" speed="8.00" length="14.19" shape="601.60,92.80,-32.83 601.05,96.65,-32.83 599.40,99.40,-32.83 596.65,101.05,-32.83 592.80,101.60,-32.83"/>
    </edge>
    <edge id=":G1_5" function="internal">
        <lane id=":G1_5_0" index="0" speed="3.65" length="4.67" shape="601.60,92.80,-32.83 600.80,94.00,-32.83 600.00,94.40,-32.83 599.20,94.00,-32.83 598.40,92.80,-32.83"/>
    </edge>
    <edge id=":G1_6" function="internal">
        <lane id=":G1_6_0" index="0" speed="6.51" length="9.03" shape="592.80,98.40,-32.83 595.25,98.05,-32.83 597.00,97.00,-32.83 598.05,95.25,-32.83 598.40,92.80,-32.83"/>
    </edge>
    <edge id=":G1_7" function="internal">
        <lane id=":G1_7_0" index="0" speed="100.00" length="14.40" shape="592.80,98.40,-32.83 607.20,98.40,-32.83"/>
    </edge>
    <edge id=":G1_8" function="internal">