<?xml version="1.0" encoding="UTF-8"?>

<!-- generated on 07/22/20 22:23:37 by Eclipse SUMO netgenerate Version 1.5.0
<configuration xmlns:xsi="http://www.w3.org/2001/XMLSchema-instance" xsi:noNamespaceSchemaLocation="http://sumo.dlr.de/xsd/netgenerateConfiguration.xsd">

    <grid_network>
        <grid value="true"/>
        <grid.x-number value="20"/>
        <grid.y-number value="2"/>
    </grid_network>

    <output>
        <output-file value="0.net.xml"/>
    </output>

    <processing>
        <perturb-x value="23"/>
        <perturb-z value="100"/>
    </processing>

    <random_number>
        <seed value="5379479"/>
    </random_number>

</configuration>
-->

<net version="1.3" junctionCornerDetail="5" limitTurnSpeed="5.50" xmlns:xsi="http://www.w3.org/2001/XMLSchema-instance" xsi:noNamespaceSchemaLocation="http://sumo.dlr.de/xsd/net_file.xsd">

    <location netOffset="-27.37,0.00" convBoundary="0.00,0.00,1855.15,100.00" origBoundary="27.37,0.00,1882.52,100.00" projParameter="!"/>

    <edge id=":A0_0" function="internal">
        <lane id=":A0_0_0" index="0" speed="3.91" length="5.75" shape="8.23,1.60,114.99 7.56,1.69,113.58 7.07,1.98,112.40 6.76,2.45,111.22 6.63,3.12,109.81"/>
    </edge>
    <edge id=":A0_1" function="internal">
        <lane id=":A0_1_0" index="0" speed="6.08" length="9.16" shape="3.43,2.95,109.81 3.82,0.96,111.26 4.75,-0.46,112.47 6.22,-1.32,113.68 8.23,-1.60,115.13"/>
    </edge>
    <edge id=":A1_0" function="internal">
        <lane id=":A1_0_0" index="0" speed="6.07" length="8.04" shape="3.37,101.60,-69.81 1.17,101.28,-69.82 -0.36,100.34,-69.83 -1.22,98.76,-69.84 -1.42,96.55,-69.85"/>
    </edge>
    <edge id=":A1_1" function="internal">
        <lane id=":A1_1_0" index="0" speed="3.90" length="2.69" shape="1.77,96.72,-69.85 1.84,97.45,-69.92 2.13,97.98,-69.97 2.64,98.29,-70.03 3.37,98.40,-70.10"/>
    </edge>
    <edge id=":B0_0" function="internal">
        <lane id=":B0_0_0" index="0" speed="9.60" length="12.44" shape="35.57,9.08,111.20 33.34,5.81,111.20 31.05,3.47,111.20 28.70,2.07,111.20 26.27,1.60,111.20"/>
    </edge>
    <edge id=":B0_1" function="internal">
        <lane id=":B0_1_0" index="0" speed="7.40" length="16.85" shape="35.57,9.08,111.20 33.61,4.41,111.20 33.97,1.07,111.20 36.67,-0.93,111.20 41.69,-1.60,111.20"/>
    </edge>
    <edge id=":B0_2" function="internal">
        <lane id=":B0_2_0" index="0" speed="3.65" length="4.67" shape="35.57,9.08,111.20 35.65,7.64,111.20 36.14,6.89,111.20 37.03,6.83,111.20 38.33,7.46,111.20"/>
    </edge>
    <edge id=":B0_3" function="internal">
        <lane id=":B0_3_0" index="0" speed="5.66" length="9.25" shape="41.69,1.60,111.20 38.93,1.97,111.20 37.45,3.07,111.20 37.25,4.90,111.20 38.33,7.46,111.20"/>
    </edge>
    <edge id=":B0_4" function="internal">
        <lane id=":B0_4_0" index="0" speed="13.89" length="15.42" shape="41.69,1.60,111.20 26.27,1.60,111.20"/>
    </edge>
    <edge id=":B0_5" function="internal">
        <lane id=":B0_5_0" index="0" speed="3.65" length="2.34" shape="41.69,1.60,111.20 40.49,0.80,111.20 40.09,-0.00,111.20"/>
    </edge>
    <edge id=":B0_9" function="internal">
        <lane id=":B0_9_0" index="0" speed="3.65" length="2.34" shape="40.09,-0.00,111.20 40.49,-0.80,111.20 41.69,-1.60,111.20"/>
    </edge>
    <edge id=":B0_6" function="internal">
        <lane id=":B0_6_0" index="0" speed="13.89" length="15.42" shape="26.27,-1.60,111.20 41.69,-1.60,111.20"/>
    </edge>
    <edge id=":B0_7" function="internal">
        <lane id=":B0_7_0" index="0" speed="10.75" length="5.49" shape="26.27,-1.60,111.20 29.56,-1.03,111.20 31.45,0.00,111.20"/>
    </edge>
    <edge id=":B0_8" function="internal">
        <lane id=":B0_8_0" index="0" speed="3.65" length="2.34" shape="26.27,-1.60,111.20 27.47,-0.80,111.20 27.87,0.00,111.20"/>
    </edge>
    <edge id=":B0_10" function="internal">
        <lane id=":B0_10_0" index="0" speed="10.75" length="10.28" shape="31.45,0.00,111.20 32.66,0.67,111.20 35.59,3.50,111.20 38.33,7.46,111.20"/>
    </edge>
    <edge id=":B0_11" function="internal">
        <lane id=":B0_11_0" index="0" speed="3.65" length="2.34" shape="27.87,0.00,111.20 27.47,0.80,111.20 26.27,1.60,111.20"/>
    </edge>
    <edge id=":B1_0" function="internal">
        <lane id=":B1_0_0" index="0" speed="13.89" length="17.83" shape="98.90,101.60,90.67 81.06,101.60,90.67"/>
    </edge>
    <edge id=":B1_1" function="internal">
        <lane id=":B1_1_0" index="0" speed="11.44" length="6.95" shape="98.90,101.60,90.67 94.55,101.03,90.67 92.20,100.00,90.67"/>
    </edge>
    <edge id=":B1_2" function="internal">
        <lane id=":B1_2_0" index="0" speed="3.65" length="2.34" shape="98.90,101.60,90.67 97.70,100.80,90.67 97.30,100.00,90.67"/>
    </edge>
    <edge id=":B1_9" function="internal">
        <lane id=":B1_9_0" index="0" speed="11.44" length="10.97" shape="92.20,100.00,90.67 90.69,99.33,90.67 87.31,96.50,90.67 84.42,92.54,90.67"/>
    </edge>
    <edge id=":B1_10" function="internal">
        <lane id=":B1_10_0" index="0" speed="3.65" length="2.34" shape="97.30,100.00,90.67 97.70,99.20,90.67 98.90,98.40,90.67"/>
    </edge>
    <edge id=":B1_3" function="internal">
        <lane id=":B1_3_0" index="0" speed="10.36" length="14.57" shape="87.18,90.92,90.67 89.56,94.19,90.67 92.30,96.53,90.67 95.41,97.93,90.67 98.90,98.40,90.67"/>
    </edge>
    <edge id=":B1_4" function="internal">
        <lane id=":B1_4_0" index="0" speed="7.40" length="16.85" shape="87.18,90.92,90.67 89.14,95.59,90.67 88.78,98.93,90.67 86.08,100.93,90.67 81.06,101.60,90.67"/>
    </edge>
    <edge id=":B1_5" function="internal">
        <lane id=":B1_5_0" index="0" speed="3.65" length="4.67" shape="87.18,90.92,90.67 87.10,92.36,90.67 86.61,93.11,90.67 85.72,93.17,90.67 84.42,92.54,90.67"/>
    </edge>
    <edge id=":B1_6" function="internal">
        <lane id=":B1_6_0" index="0" speed="5.66" length="9.25" shape="81.06,98.40,90.67 83.82,98.03,90.67 85.30,96.93,90.67 85.50,95.10,90.67 84.42,92.54,90.67"/>
    </edge>
    <edge id=":B1_7" function="internal">
        <lane id=":B1_7_0" index="0" speed="13.89" length="17.83" shape="81.06,98.40,90.67 98.90,98.40,90.67"/>
    </edge>
    <edge id=":B1_8" function="internal">
        <lane id=":B1_8_0" index="0" speed="3.65" length="2.34" shape="81.06,98.40,90.67 82.26,99.20,90.67 82.66,100.00,90.67"/>
    </edge>
    <edge id=":B1_11" function="internal">
        <lane id=":B1_11_0" index="0" speed="3.65" length="2.34" shape="82.66,100.00,90.67 82.26,100.80,90.67 81.06,101.60,90.67"/>
    </edge>
    <edge id=":C0_0" function="internal">
        <lane id=":C0_0_0" index="0" speed="6.97" length="9.63" shape="183.02,7.71,-35.86 182.38,5.04,-35.86 181.14,3.13,-35.86 179.32,1.98,-35.86 176.90,1.60,-35.86"/>
    </edge>
    <edge id=":C0_1" function="internal">
        <lane id=":C0_1_0" index="0" speed="7.81" length="14.64" shape="183.02,7.71,-35.86 183.14,3.64,-35.86 184.57,0.73,-35.86 187.31,-1.02,-35.86 191.34,-1.60,-35.86"/>
    </edge>
    <edge id=":C0_2" function="internal">
        <lane id=":C0_2_0" index="0" speed="3.65" length="4.67" shape="183.02,7.71,-35.86 183.68,6.43,-35.86 184.43,5.94,-35.86 185.27,6.25,-35.86 186.20,7.35,-35.86"/>
    </edge>
    <edge id=":C0_3" function="internal">
        <lane id=":C0_3_0" index="0" speed="6.28" length="9.04" shape="191.34,1.60,-35.86 188.85,1.96,-35.86 187.16,3.04,-35.86 186.28,4.84,-35.86 186.20,7.35,-35.86"/>
    </edge>
    <edge id=":C0_4" function="internal">
        <lane id=":C0_4_0" index="0" speed="13.89" length="14.44" shape="191.34,1.60,-35.86 176.90,1.60,-35.86"/>
    </edge>
    <edge id=":C0_5" function="internal">
        <lane id=":C0_5_0" index="0" speed="3.65" length="2.34" shape="191.34,1.60,-35.86 190.14,0.80,-35.86 189.74,0.00,-35.86"/>
    </edge>
    <edge id=":C0_9" function="internal">
        <lane id=":C0_9_0" index="0" speed="3.65" length="2.34" shape="189.74,0.00,-35.86 190.14,-0.80,-35.86 191.34,-1.60,-35.86"/>
    </edge>
    <edge id=":C0_6" function="internal">
        <lane id=":C0_6_0" index="0" speed="13.89" length="14.44" shape="176.90,-1.60,-35.86 191.34,-1.60,-35.86"/>
    </edge>
    <edge id=":C0_7" function="internal">
        <lane id=":C0_7_0" index="0" speed="8.39" length="5.74" shape="176.90,-1.60,-35.86 180.59,-1.04,-35.86 182.31,0.00,-35.86"/>
    </edge>
    <edge id=":C0_8" function="internal">
        <lane id=":C0_8_0" index="0" speed="3.65" length="2.34" shape="176.90,-1.60,-35.86 178.10,-0.80,-35.86 178.50,0.00,-35.86"/>
    </edge>
    <edge id=":C0_10" function="internal">
        <lane id=":C0_10_0" index="0" speed="8.39" length="8.63" shape="182.31,0.00,-35.86 183.37,0.64,-35.86 185.24,3.44,-35.86 186.20,7.35,-35.86"/>
    </edge>
    <edge id=":C0_11" function="internal">
        <lane id=":C0_11_0" index="0" speed="3.65" length="2.34" shape="178.50,0.00,-35.86 178.10,0.80,-35.86 176.90,1.60,-35.86"/>
    </edge>
    <edge id=":C1_0" function="internal">
        <lane id=":C1_0_0" index="0" speed="13.89" length="14.44" shape="201.89,101.60,-221.91 187.45,101.60,-221.91"/>
    </edge>
    <edge id=":C1_1" function="internal">
        <lane id=":C1_1_0" index="0" speed="8.39" length="5.74" shape="201.89,101.60,-221.91 198.20,101.04,-221.91 196.48,100.00,-221.91"/>
    </edge>
    <edge id=":C1_2" function="internal">
        <lane id=":C1_2_0" index="0" speed="3.65" length="2.34" shape="201.89,101.60,-221.91 200.69,100.80,-221.91 200.29,100.00,-221.91"/>
    </edge>
    <edge id=":C1_9" function="internal">
        <lane id=":C1_9_0" index="0" speed="8.39" length="8.63" shape="196.48,100.00,-221.91 195.42,99.36,-221.91 193.55,96.56,-221.91 192.59,92.65,-221.91"/>
    </edge>
    <edge id=":C1_10" function="internal">
        <lane id=":C1_10_0" index="0" speed="3.65" length="2.34" shape="200.29,100.00,-221.91 200.69,99.20,-221.91 201.89,98.40,-221.91"/>
    </edge>
    <edge id=":C1_3" function="internal">
        <lane id=":C1_3_0" index="0" speed="6.97" length="9.63" shape="195.77,92.29,-221.91 196.41,94.96,-221.91 197.64,96.87,-221.91 199.47,98.02,-221.91 201.89,98.40,-221.91"/>
    </edge>
    <edge id=":C1_4" function="internal">
        <lane id=":C1_4_0" index="0" speed="7.81" length="14.64" shape="195.77,92.29,-221.91 195.64,96.36,-221.91 194.21,99.27,-221.91 191.48,101.02,-221.91 187.45,101.60,-221.91"/>
    </edge>
    <edge id=":C1_5" function="internal">
        <lane id=":C1_5_0" index="0" speed="3.65" length="4.67" shape="195.77,92.29,-221.91 195.11,93.57,-221.91 194.36,94.06,-221.91 193.52,93.75,-221.91 192.59,92.65,-221.91"/>
    </edge>
    <edge id=":C1_6" function="internal">
        <lane id=":C1_6_0" index="0" speed="6.28" length="9.04" shape="187.45,98.40,-221.91 189.94,98.04,-221.91 191.63,96.96,-221.91 192.51,95.16,-221.91 192.59,92.65,-221.91"/>
    </edge>
    <edge id=":C1_7" function="internal">
        <lane id=":C1_7_0" index="0" speed="13.89" length="14.44" shape="187.45,98.40,-221.91 201.89,98.40,-221.91"/>
    </edge>
    <edge id=":C1_8" function="internal">
        <lane id=":C1_8_0" index="0" speed="3.65" length="2.34" shape="187.45,98.40,-221.91 188.65,99.20,-221.91 189.05,100.00,-221.91"/>
    </edge>
    <edge id=":C1_11" function="internal">
        <lane id=":C1_11_0" index="0" speed="3.65" length="2.34" shape="189.05,100.00,-221.91 188.65,100.80,-221.91 187.45,101.60,-221.91"/>
    </edge>
    <edge id=":D0_0" function="internal">
        <lane id=":D0_0_0" index="0" speed="7.31" length="10.03" shape="242.28,8.00,141.62 241.43,5.20,141.62 240.06,3.20,141.62 238.17,2.00,141.62 235.77,1.60,141.62"/>
    </edge>
    <edge id=":D0_1" function="internal">
        <lane id=":D0_1_0" index="0" speed="7.71" length="14.93" shape="242.28,8.00,141.62 242.11,3.80,141.62 243.39,0.80,141.62 246.11,-1.00,141.62 250.27,-1.60,141.62"/>
    </edge>
    <edge id=":D0_2" function="internal">
        <lane id=":D0_2_0" index="0" speed="3.65" length="4.67" shape="242.28,8.00,141.62 242.85,6.68,141.62 243.56,6.14,141.62 244.42,6.39,141.62 245.43,7.42,141.62"/>
    </edge>
    <edge id=":D0_3" function="internal">
        <lane id=":D0_3_0" index="0" speed="6.15" length="9.06" shape="250.27,1.60,141.62 247.75,1.96,141.62 246.10,3.06,141.62 245.33,4.88,141.62 245.43,7.42,141.62"/>
    </edge>
    <edge id=":D0_4" function="internal">
        <lane id=":D0_4_0" index="0" speed="13.89" length="14.51" shape="250.27,1.60,141.62 235.77,1.60,141.62"/>
    </edge>
    <edge id=":D0_5" function="internal">
        <lane id=":D0_5_0" index="0" speed="3.65" length="2.34" shape="250.27,1.60,141.62 249.07,0.80,141.62 248.67,0.00,141.62"/>
    </edge>
    <edge id=":D0_9" function="internal">
        <lane id=":D0_9_0" index="0" speed="3.65" length="2.34" shape="248.67,0.00,141.62 249.07,-0.80,141.62 250.27,-1.60,141.62"/>
    </edge>
    <edge id=":D0_6" function="internal">
        <lane id=":D0_6_0" index="0" speed="13.89" length="14.51" shape="235.77,-1.60,141.62 250.27,-1.60,141.62"/>
    </edge>
    <edge id=":D0_7" function="internal">
        <lane id=":D0_7_0" index="0" speed="8.68" length="5.65" shape="235.77,-1.60,141.62 239.37,-1.04,141.62 241.09,-0.00,141.62"/>
    </edge>
    <edge id=":D0_8" function="internal">
        <lane id=":D0_8_0" index="0" speed="3.65" length="2.34" shape="235.77,-1.60,141.62 236.97,-0.80,141.62 237.37,0.00,141.62"/>
    </edge>
    <edge id=":D0_10" function="internal">
        <lane id=":D0_10_0" index="0" speed="8.68" length="8.88" shape="241.09,-0.00,141.62 242.18,0.66,141.62 244.20,3.48,141.62 245.43,7.42,141.62"/>
    </edge>
    <edge id=":D0_11" function="internal">
        <lane id=":D0_11_0" index="0" speed="3.65" length="2.34" shape="237.37,0.00,141.62 236.97,0.80,141.62 235.77,1.60,141.62"/>
    </edge>
    <edge id=":D1_0" function="internal">
        <lane id=":D1_0_0" index="0" speed="13.89" length="14.51" shape="267.55,101.60,-24.63 253.04,101.60,-24.63"/>
    </edge>
    <edge id=":D1_1" function="internal">
        <lane id=":D1_1_0" index="0" speed="8.68" length="5.65" shape="267.55,101.60,-24.63 263.95,101.04,-24.63 262.23,100.00,-24.63"/>
    </edge>
    <edge id=":D1_2" function="internal">
        <lane id=":D1_2_0" index="0" speed="3.65" length="2.34" shape="267.55,101.60,-24.63 266.35,100.80,-24.63 265.95,100.00,-24.63"/>
    </edge>
    <edge id=":D1_9" function="internal">
        <lane id=":D1_9_0" index="0" speed="8.68" length="8.88" shape="262.23,100.00,-24.63 261.14,99.34,-24.63 259.12,96.52,-24.63 257.89,92.58,-24.63"/>
    </edge>
    <edge id=":D1_10" function="internal">
        <lane id=":D1_10_0" index="0" speed="3.65" length="2.34" shape="265.95,100.00,-24.63 266.35,99.20,-24.63 267.55,98.40,-24.63"/>
    </edge>
    <edge id=":D1_3" function="internal">
        <lane id=":D1_3_0" index="0" speed="7.31" length="10.03" shape="261.04,92.00,-24.63 261.89,94.80,-24.63 263.26,96.80,-24.63 265.14,98.00,-24.63 267.55,98.40,-24.63"/>
    </edge>
    <edge id=":D1_4" function="internal">
        <lane id=":D1_4_0" index="0" speed="7.71" length="14.93" shape="261.04,92.00,-24.63 261.20,96.20,-24.63 259.93,99.20,-24.63 257.21,101.00,-24.63 253.04,101.60,-24.63"/>
    </edge>
    <edge id=":D1_5" function="internal">
        <lane id=":D1_5_0" index="0" speed="3.65" length="4.67" shape="261.04,92.00,-24.63 260.47,93.32,-24.63 259.75,93.86,-24.63 258.89,93.61,-24.63 257.89,92.58,-24.63"/>
    </edge>
    <edge id=":D1_6" function="internal">
        <lane id=":D1_6_0" index="0" speed="6.15" length="9.06" shape="253.04,98.40,-24.63 255.57,98.04,-24.63 257.22,96.94,-24.63 257.99,95.12,-24.63 257.89,92.58,-24.63"/>
    </edge>
    <edge id=":D1_7" function="internal">
        <lane id=":D1_7_0" index="0" speed="13.89" length="14.51" shape="253.04,98.40,-24.63 267.55,98.40,-24.63"/>
    </edge>
    <edge id=":D1_8" function="internal">
        <lane id=":D1_8_0" index="0" speed="3.65" length="2.34" shape="253.04,98.40,-24.63 254.24,99.20,-24.63 254.64,100.00,-24.63"/>
    </edge>
    <edge id=":D1_11" function="internal">
        <lane id=":D1_11_0" index="0" speed="3.65" length="2.34" shape="254.64,100.00,-24.63 254.24,100.80,-24.63 253.04,101.60,-24.63"/>
    </edge>
    <edge id=":E0_0" function="internal">
        <lane id=":E0_0_0" index="0" speed="7.02" length="9.69" shape="354.89,7.76,92.95 354.22,5.06,92.95 352.96,3.14,92.95 351.13,1.98,92.95 348.71,1.60,92.95"/>
    </edge>
    <edge id=":E0_1" function="internal">
        <lane id=":E0_1_0" index="0" speed="7.80" length="14.68" shape="354.89,7.76,92.95 354.97,3.66,92.95 356.38,0.74,92.95 359.11,-1.02,92.95 363.16,-1.60,92.95"/>
    </edge>
    <edge id=":E0_2" function="internal">
        <lane id=":E0_2_0" index="0" speed="3.65" length="4.67" shape="354.89,7.76,92.95 355.53,6.47,92.95 356.28,5.97,92.95 357.12,6.27,92.95 358.06,7.37,92.95"/>
    </edge>
    <edge id=":E0_3" function="internal">
        <lane id=":E0_3_0" index="0" speed="6.26" length="9.05" shape="363.16,1.60,92.95 360.66,1.96,92.95 358.98,3.04,92.95 358.11,4.84,92.95 358.06,7.37,92.95"/>
    </edge>
    <edge id=":E0_4" function="internal">
        <lane id=":E0_4_0" index="0" speed="13.89" length="14.45" shape="363.16,1.60,92.95 348.71,1.60,92.95"/>
    </edge>
    <edge id=":E0_5" function="internal">
        <lane id=":E0_5_0" index="0" speed="3.65" length="2.34" shape="363.16,1.60,92.95 361.96,0.80,92.95 361.56,0.00,92.95"/>
    </edge>
    <edge id=":E0_9" function="internal">
        <lane id=":E0_9_0" index="0" speed="3.65" length="2.34" shape="361.56,0.00,92.95 361.96,-0.80,92.95 363.16,-1.60,92.95"/>
    </edge>
    <edge id=":E0_6" function="internal">
        <lane id=":E0_6_0" index="0" speed="13.89" length="14.45" shape="348.71,-1.60,92.95 363.16,-1.60,92.95"/>
    </edge>
    <edge id=":E0_7" function="internal">
        <lane id=":E0_7_0" index="0" speed="8.44" length="5.73" shape="348.71,-1.60,92.95 352.39,-1.04,92.95 354.11,-0.00,92.95"/>
    </edge>
    <edge id=":E0_8" function="internal">
        <lane id=":E0_8_0" index="0" speed="3.65" length="2.34" shape="348.71,-1.60,92.95 349.91,-0.80,92.95 350.31,0.00,92.95"/>
    </edge>
    <edge id=":E0_10" function="internal">
        <lane id=":E0_10_0" index="0" speed="8.44" length="8.67" shape="354.11,-0.00,92.95 355.17,0.64,92.95 357.06,3.44,92.95 358.06,7.37,92.95"/>
    </edge>
    <edge id=":E0_11" function="internal">
        <lane id=":E0_11_0" index="0" speed="3.65" length="2.34" shape="350.31,0.00,92.95 349.91,0.80,92.95 348.71,1.60,92.95"/>
    </edge>
    <edge id=":E1_0" function="internal">
        <lane id=":E1_0_0" index="0" speed="13.89" length="14.45" shape="374.74,101.60,-147.85 360.29,101.60,-147.85"/>
    </edge>
    <edge id=":E1_1" function="internal">
        <lane id=":E1_1_0" index="0" speed="8.44" length="5.73" shape="374.74,101.60,-147.85 371.07,101.04,-147.85 369.34,100.00,-147.85"/>
    </edge>
    <edge id=":E1_2" function="internal">
        <lane id=":E1_2_0" index="0" speed="3.65" length="2.34" shape="374.74,101.60,-147.85 373.54,100.80,-147.85 373.14,100.00,-147.85"/>
    </edge>
    <edge id=":E1_9" function="internal">
        <lane id=":E1_9_0" index="0" speed="8.44" length="8.67" shape="369.34,100.00,-147.85 368.28,99.36,-147.85 366.39,96.56,-147.85 365.39,92.63,-147.85"/>
    </edge>
    <edge id=":E1_10" function="internal">
        <lane id=":E1_10_0" index="0" speed="3.65" length="2.34" shape="373.14,100.00,-147.85 373.54,99.20,-147.85 374.74,98.40,-147.85"/>
    </edge>
    <edge id=":E1_3" function="internal">
        <lane id=":E1_3_0" index="0" speed="7.02" length="9.69" shape="368.56,92.24,-147.85 369.24,94.94,-147.85 370.49,96.86,-147.85 372.32,98.02,-147.85 374.74,98.40,-147.85"/>
    </edge>
    <edge id=":E1_4" function="internal">
        <lane id=":E1_4_0" index="0" speed="7.80" length="14.68" shape="368.56,92.24,-147.85 368.48,96.34,-147.85 367.08,99.26,-147.85 364.35,101.02,-147.85 360.29,101.60,-147.85"/>
    </edge>
    <edge id=":E1_5" function="internal">
        <lane id=":E1_5_0" index="0" speed="3.65" length="4.67" shape="368.56,92.24,-147.85 367.92,93.53,-147.85 367.17,94.03,-147.85 366.33,93.73,-147.85 365.39,92.63,-147.85"/>
    </edge>
    <edge id=":E1_6" function="internal">
        <lane id=":E1_6_0" index="0" speed="6.26" length="9.05" shape="360.29,98.40,-147.85 362.79,98.04,-147.85 364.47,96.96,-147.85 365.34,95.16,-147.85 365.39,92.63,-147.85"/>
    </edge>
    <edge id=":E1_7" function="internal">
        <lane id=":E1_7_0" index="0" speed="13.89" length="14.45" shape="360.29,98.40,-147.85 374.74,98.40,-147.85"/>
    </edge>
    <edge id=":E1_8" function="internal">
        <lane id=":E1_8_0" index="0" speed="3.65" length="2.34" shape="360.29,98.40,-147.85 361.49,99.20,-147.85 361.89,100.00,-147.85"/>
    </edge>
    <edge id=":E1_11" function="internal">
        <lane id=":E1_11_0" index="0" speed="3.65" length="2.34" shape="361.89,100.00,-147.85 361.49,100.80,-147.85 360.29,101.60,-147.85"/>
    </edge>
    <edge id=":F0_0" function="internal">
        <lane id=":F0_0_0" index="0" speed="7.82" length="10.62" shape="528.84,1.60,97.40 526.44,2.02,97.40 524.45,3.29,97.40 522.87,5.41,97.40 521.70,8.37,97.40"/>
    </edge>
    <edge id=":F0_1" function="internal">
        <lane id=":F0_1_0" index="0" speed="13.89" length="14.66" shape="528.84,1.60,97.40 514.19,1.60,97.40"/>
    </edge>
    <edge id=":F0_2" function="internal">
        <lane id=":F0_2_0" index="0" speed="3.65" length="2.34" shape="528.84,1.60,97.40 527.64,0.80,97.40 527.24,0.00,97.40"/>
    </edge>
    <edge id=":F0_9" function="internal">
        <lane id=":F0_9_0" index="0" speed="3.65" length="2.34" shape="527.24,0.00,97.40 527.64,-0.80,97.40 528.84,-1.60,97.40"/>
    </edge>
    <edge id=":F0_3" function="internal">
        <lane id=":F0_3_0" index="0" speed="13.89" length="14.66" shape="514.19,-1.60,97.40 528.84,-1.60,97.40"/>
    </edge>
    <edge id=":F0_4" function="internal">
        <lane id=":F0_4_0" index="0" speed="7.59" length="6.12" shape="514.19,-1.60,97.40 518.54,-0.98,97.40 519.96,0.00,97.40"/>
    </edge>
    <edge id=":F0_5" function="internal">
        <lane id=":F0_5_0" index="0" speed="3.65" length="2.34" shape="514.19,-1.60,97.40 515.39,-0.80,97.40 515.79,0.00,97.40"/>
    </edge>
    <edge id=":F0_10" function="internal">
        <lane id=":F0_10_0" index="0" speed="7.59" length="9.26" shape="519.96,0.00,97.40 521.25,0.89,97.40 522.30,4.01,97.40 521.70,8.37,97.40"/>
    </edge>
    <edge id=":F0_11" function="internal">
        <lane id=":F0_11_0" index="0" speed="3.65" length="2.34" shape="515.79,0.00,97.40 515.39,0.80,97.40 514.19,1.60,97.40"/>
    </edge>
    <edge id=":F0_6" function="internal">
        <lane id=":F0_6_0" index="0" speed="5.99" length="9.08" shape="518.62,7.49,97.40 518.98,4.91,97.40 518.36,3.07,97.40 516.76,1.97,97.40 514.19,1.60,97.40"/>
    </edge>
    <edge id=":F0_7" function="internal">
        <lane id=":F0_7_0" index="0" speed="9.13" length="14.79" shape="518.62,7.49,97.40 520.24,3.51,97.40 522.48,0.67,97.40 525.35,-1.03,97.40 528.84,-1.60,97.40"/>
    </edge>
    <edge id=":F0_8" function="internal">
        <lane id=":F0_8_0" index="0" speed="3.65" length="4.67" shape="518.62,7.49,97.40 519.72,6.55,97.40 520.60,6.39,97.40 521.26,6.99,97.40 521.70,8.37,97.40"/>
    </edge>
    <edge id=":F1_0" function="internal">
        <lane id=":F1_0_0" index="0" speed="13.89" length="14.66" shape="502.05,101.60,115.07 487.40,101.60,115.07"/>
    </edge>
    <edge id=":F1_1" function="internal">
        <lane id=":F1_1_0" index="0" speed="7.59" length="6.12" shape="502.05,101.60,115.07 497.70,100.98,115.07 496.28,100.00,115.07"/>
    </edge>
    <edge id=":F1_2" function="internal">
        <lane id=":F1_2_0" index="0" speed="3.65" length="2.34" shape="502.05,101.60,115.07 500.85,100.80,115.07 500.45,100.00,115.07"/>
    </edge>
    <edge id=":F1_9" function="internal">
        <lane id=":F1_9_0" index="0" speed="7.59" length="9.26" shape="496.28,100.00,115.07 494.99,99.11,115.07 493.94,95.99,115.07 494.54,91.63,115.07"/>
    </edge>
    <edge id=":F1_10" function="internal">
        <lane id=":F1_10_0" index="0" speed="3.65" length="2.34" shape="500.45,100.00,115.07 500.85,99.20,115.07 502.05,98.40,115.07"/>
    </edge>
    <edge id=":F1_3" function="internal">
        <lane id=":F1_3_0" index="0" speed="5.99" length="9.08" shape="497.62,92.51,115.07 497.26,95.09,115.07 497.88,96.93,115.07 499.48,98.03,115.07 502.05,98.40,115.07"/>
    </edge>
    <edge id=":F1_4" function="internal">
        <lane id=":F1_4_0" index="0" speed="9.13" length="14.79" shape="497.62,92.51,115.07 496.00,96.49,115.07 493.76,99.33,115.07 490.89,101.03,115.07 487.40,101.60,115.07"/>
    </edge>
    <edge id=":F1_5" function="internal">
        <lane id=":F1_5_0" index="0" speed="3.65" length="4.67" shape="497.62,92.51,115.07 496.52,93.45,115.07 495.64,93.61,115.07 494.98,93.01,115.07 494.54,91.63,115.07"/>
    </edge>
    <edge id=":F1_6" function="internal">
        <lane id=":F1_6_0" index="0" speed="7.82" length="10.62" shape="487.40,98.40,115.07 489.80,97.98,115.07 491.79,96.71,115.07 493.37,94.59,115.07 494.54,91.63,115.07"/>
    </edge>
    <edge id=":F1_7" function="internal">
        <lane id=":F1_7_0" index="0" speed="13.89" length="14.66" shape="487.40,98.40,115.07 502.05,98.40,115.07"/>
    </edge>
    <edge id=":F1_8" function="internal">
        <lane id=":F1_8_0" index="0" speed="3.65" length="2.34" shape="487.40,98.40,115.07 488.60,99.20,115.07 489.00,100.00,115.07"/>
    </edge>
    <edge id=":F1_11" function="internal">
        <lane id=":F1_11_0" index="0" speed="3.65" length="2.34" shape="489.00,100.00,115.07 488.60,100.80,115.07 487.40,101.60,115.07"/>
    </edge>
    <edge id=":G0_0" function="internal">
        <lane id=":G0_0_0" index="0" speed="7.58" length="10.36" shape="587.70,1.60,-49.79 585.30,2.01,-49.79 583.35,3.25,-49.79 581.87,5.32,-49.79 580.84,8.21,-49.79"/>
    </edge>
    <edge id=":G0_1" function="internal">
        <lane id=":G0_1_0" index="0" speed="13.89" length="14.58" shape="587.70,1.60,-49.79 573.11,1.60,-49.79"/>
    </edge>
    <edge id=":G0_2" function="internal">
        <lane id=":G0_2_0" index="0" speed="3.65" length="2.34" shape="587.70,1.60,-49.79 586.50,0.80,-49.79 586.10,0.00,-49.79"/>
    </edge>
    <edge id=":G0_9" function="internal">
        <lane id=":G0_9_0" index="0" speed="3.65" length="2.34" shape="586.10,0.00,-49.79 586.50,-0.80,-49.79 587.70,-1.60,-49.79"/>
    </edge>
    <edge id=":G0_3" function="internal">
        <lane id=":G0_3_0" index="0" speed="13.89" length="14.58" shape="573.11,-1.60,-49.79 587.70,-1.60,-49.79"/>
    </edge>
    <edge id=":G0_4" function="internal">
        <lane id=":G0_4_0" index="0" speed="7.64" length="6.07" shape="573.11,-1.60,-49.79 577.38,-0.99,-49.79 578.84,0.00,-49.79"/>
    </edge>
    <edge id=":G0_5" function="internal">
        <lane id=":G0_5_0" index="0" speed="3.65" length="2.34" shape="573.11,-1.60,-49.79 574.31,-0.80,-49.79 574.71,0.00,-49.79"/>
    </edge>
    <edge id=":G0_10" function="internal">
        <lane id=":G0_10_0" index="0" speed="7.64" length="9.11" shape="578.84,0.00,-49.79 580.09,0.85,-49.79 581.25,3.92,-49.79 580.84,8.21,-49.79"/>
    </edge>
    <edge id=":G0_11" function="internal">
        <lane id=":G0_11_0" index="0" speed="3.65" length="2.34" shape="574.71,0.00,-49.79 574.31,0.80,-49.79 573.11,1.60,-49.79"/>
    </edge>
    <edge id=":G0_6" function="internal">
        <lane id=":G0_6_0" index="0" speed="6.06" length="9.07" shape="577.73,7.46,-49.79 577.97,4.90,-49.79 577.28,3.07,-49.79 575.66,1.97,-49.79 573.11,1.60,-49.79"/>
    </edge>
    <edge id=":G0_7" function="internal">
        <lane id=":G0_7_0" index="0" speed="8.92" length="14.67" shape="577.73,7.46,-49.79 579.17,3.50,-49.79 581.32,0.67,-49.79 584.16,-1.03,-49.79 587.70,-1.60,-49.79"/>
    </edge>
    <edge id=":G0_8" function="internal">
        <lane id=":G0_8_0" index="0" speed="3.65" length="4.67" shape="577.73,7.46,-49.79 578.79,6.48,-49.79 579.66,6.28,-49.79 580.35,6.86,-49.79 580.84,8.21,-49.79"/>
    </edge>
    <edge id=":G1_0" function="internal">
        <lane id=":G1_0_0" index="0" speed="13.89" length="14.58" shape="565.14,101.60,40.95 550.55,101.60,40.95"/>
    </edge>
    <edge id=":G1_1" function="internal">
        <lane id=":G1_1_0" index="0" speed="7.64" length="6.07" shape="565.14,101.60,40.95 560.87,100.99,40.95 559.41,100.00,40.95"/>
    </edge>
    <edge id=":G1_2" function="internal">
        <lane id=":G1_2_0" index="0" speed="3.65" length="2.34" shape="565.14,101.60,40.95 563.94,100.80,40.95 563.54,100.00,40.95"/>
    </edge>
    <edge id=":G1_9" function="internal">
        <lane id=":G1_9_0" index="0" speed="7.64" length="9.11" shape="559.41,100.00,40.95 558.16,99.15,40.95 557.00,96.08,40.95 557.41,91.79,40.95"/>
    </edge>
    <edge id=":G1_10" function="internal">
        <lane id=":G1_10_0" index="0" speed="3.65" length="2.34" shape="563.54,100.00,40.95 563.94,99.20,40.95 565.14,98.40,40.95"/>
    </edge>
    <edge id=":G1_3" function="internal">
        <lane id=":G1_3_0" index="0" speed="6.06" length="9.07" shape="560.52,92.54,40.95 560.28,95.10,40.95 560.96,96.93,40.95 562.58,98.03,40.95 565.14,98.40,40.95"/>
    </edge>
    <edge id=":G1_4" function="internal">
        <lane id=":G1_4_0" index="0" speed="8.92" length="14.67" shape="560.52,92.54,40.95 559.08,96.50,40.95 556.93,99.33,40.95 554.09,101.03,40.95 550.55,101.60,40.95"/>
    </edge>
    <edge id=":G1_5" function="internal">
        <lane id=":G1_5_0" index="0" speed="3.65" length="4.67" shape="560.52,92.54,40.95 559.46,93.52,40.95 558.59,93.72,40.95 557.90,93.14,40.95 557.41,91.79,40.95"/>
    </edge>
    <edge id=":G1_6" function="internal">
        <lane id=":G1_6_0" index="0" speed="7.58" length="10.36" shape="550.55,98.40,40.95 552.95,97.99,40.95 554.90,96.75,40.95 556.38,94.68,40.95 557.41,91.79,40.95"/>
    </edge>
    <edge id=":G1_7" function="internal">