<?xml version="1.0" encoding="UTF-8"?>

<!-- generated on 07/22/20 21:49:06 by Eclipse SUMO netgenerate Version 1.5.0
<configuration xmlns:xsi="http://www.w3.org/2001/XMLSchema-instance" xsi:noNamespaceSchemaLocation="http://sumo.dlr.de/xsd/netgenerateConfiguration.xsd">

    <grid_network>
        <grid value="true"/>
        <grid.x-number value="20"/>
        <grid.y-number value="2"/>
    </grid_network>

    <output>
        <output-file value="0.net.xml"/>
    </output>

    <processing>
        <perturb-x value="40"/>
        <perturb-z value="100"/>
    </processing>

    <random_number>
        <seed value="32475683"/>
    </random_number>

</configuration>
-->

<net version="1.3" junctionCornerDetail="5" limitTurnSpeed="5.50" xmlns:xsi="http://www.w3.org/2001/XMLSchema-instance" xsi:noNamespaceSchemaLocation="http://sumo.dlr.de/xsd/net_file.xsd">

    <location netOffset="19.48,0.00" convBoundary="0.00,0.00,1912.62,100.00" origBoundary="-19.48,0.00,1893.14,100.00" projParameter="!"/>

    <edge id=":A0_0" function="internal">
        <lane id=":A0_0_0" index="0" speed="6.10" length="10.47" shape="5.63,4.61,-38.03 5.20,1.89,-39.24 5.82,-0.05,-40.15 7.50,-1.21,-41.05 10.22,-1.60,-42.26"/>
    </edge>
    <edge id=":A0_1" function="internal">
        <lane id=":A0_1_0" index="0" speed="3.91" length="5.46" shape="10.22,1.60,-42.45 9.31,1.73,-41.18 8.75,2.12,-40.24 8.54,2.76,-39.30 8.69,3.67,-38.03"/>
    </edge>
    <edge id=":A1_0" function="internal">
        <lane id=":A1_0_0" index="0" speed="6.10" length="15.93" shape="36.81,95.39,19.11 37.24,98.11,22.76 36.62,100.05,25.47 34.95,101.21,28.18 32.23,101.60,31.84"/>
    </edge>
    <edge id=":A1_1" function="internal">
        <lane id=":A1_1_0" index="0" speed="3.91" length="19.24" shape="32.23,98.40,38.08 33.13,98.27,32.63 33.69,97.88,28.59 33.90,97.24,24.55 33.76,96.33,19.11"/>
    </edge>
    <edge id=":B0_0" function="internal">
        <lane id=":B0_0_0" index="0" speed="13.89" length="17.48" shape="143.70,1.60,-91.36 139.76,2.41,-91.36 135.66,4.42,-91.36 131.73,6.98,-91.36 128.32,9.43,-91.36"/>
    </edge>
    <edge id=":B0_1" function="internal">
        <lane id=":B0_1_0" index="0" speed="13.89" length="18.94" shape="143.70,1.60,-91.36 124.76,1.60,-91.36"/>
    </edge>
    <edge id=":B0_2" function="internal">
        <lane id=":B0_2_0" index="0" speed="3.65" length="2.34" shape="143.70,1.60,-91.36 142.50,0.80,-91.36 142.10,0.00,-91.36"/>
    </edge>
    <edge id=":B0_9" function="internal">
        <lane id=":B0_9_0" index="0" speed="3.65" length="2.34" shape="142.10,0.00,-91.36 142.50,-0.80,-91.36 143.70,-1.60,-91.36"/>
    </edge>
    <edge id=":B0_3" function="internal">
        <lane id=":B0_3_0" index="0" speed="13.89" length="18.94" shape="124.76,-1.60,-91.36 143.70,-1.60,-91.36"/>
    </edge>
    <edge id=":B0_4" function="internal">
        <lane id=":B0_4_0" index="0" speed="7.62" length="8.94" shape="124.76,-1.60,-91.36 132.06,-0.91,-91.36 133.39,-0.00,-91.36"/>
    </edge>
    <edge id=":B0_5" function="internal">
        <lane id=":B0_5_0" index="0" speed="3.65" length="2.34" shape="124.76,-1.60,-91.36 125.96,-0.80,-91.36 126.36,0.00,-91.36"/>
    </edge>
    <edge id=":B0_10" function="internal">
        <lane id=":B0_10_0" index="0" speed="7.62" length="13.05" shape="133.39,-0.00,-91.36 135.08,1.16,-91.36 133.84,4.61,-91.36 128.32,9.43,-91.36"/>
    </edge>
    <edge id=":B0_11" function="internal">
        <lane id=":B0_11_0" index="0" speed="3.65" length="2.34" shape="126.36,0.00,-91.36 125.96,0.80,-91.36 124.76,1.60,-91.36"/>
    </edge>
    <edge id=":B0_6" function="internal">
        <lane id=":B0_6_0" index="0" speed="5.46" length="10.44" shape="126.45,6.84,-91.36 129.07,4.55,-91.36 129.66,2.91,-91.36 128.22,1.93,-91.36 124.76,1.60,-91.36"/>
    </edge>
    <edge id=":B0_7" function="internal">
        <lane id=":B0_7_0" index="0" speed="13.89" length="19.40" shape="126.45,6.84,-91.36 130.16,4.29,-91.36 134.72,1.52,-91.36 139.47,-0.69,-91.36 143.70,-1.60,-91.36"/>
    </edge>
    <edge id=":B0_8" function="internal">
        <lane id=":B0_8_0" index="0" speed="3.65" length="4.67" shape="126.45,6.84,-91.36 127.89,6.78,-91.36 128.69,7.20,-91.36 128.83,8.08,-91.36 128.32,9.43,-91.36"/>
    </edge>
    <edge id=":B1_0" function="internal">
        <lane id=":B1_0_0" index="0" speed="7.62" length="21.99" shape="13.91,101.60,107.47 6.61,100.91,107.47 3.59,98.84,107.47 4.83,95.39,107.47 10.35,90.57,107.47"/>
    </edge>
    <edge id=":B1_1" function="internal">
        <lane id=":B1_1_0" index="0" speed="3.24" length="3.20" shape="13.91,101.60,107.47 13.91,98.40,107.47"/>
    </edge>
    <edge id=":B1_2" function="internal">
        <lane id=":B1_2_0" index="0" speed="3.65" length="2.49" shape="13.91,101.60,107.47 12.71,100.80,107.47 12.31,100.00,107.47 12.38,99.86,107.47"/>
    </edge>
    <edge id=":B1_9" function="internal">
        <lane id=":B1_9_0" index="0" speed="3.65" length="2.18" shape="12.38,99.86,107.47 12.71,99.20,107.47 13.91,98.40,107.47"/>
    </edge>
    <edge id=":B1_3" function="internal">
        <lane id=":B1_3_0" index="0" speed="5.46" length="10.44" shape="12.22,93.16,107.47 9.60,95.45,107.47 9.01,97.09,107.47 10.44,98.07,107.47 13.91,98.40,107.47"/>
    </edge>
    <edge id=":B1_4" function="internal">
        <lane id=":B1_4_0" index="0" speed="5.46" length="10.44" shape="12.22,93.16,107.47 9.60,95.45,107.47 9.01,97.09,107.47 10.44,98.07,107.47 13.91,98.40,107.47"/>
    </edge>
    <edge id=":B1_5" function="internal">
        <lane id=":B1_5_0" index="0" speed="3.65" length="2.17" shape="12.22,93.16,107.47 10.78,93.22,107.47 10.13,92.88,107.47"/>
    </edge>
    <edge id=":B1_10" function="internal">
        <lane id=":B1_10_0" index="0" speed="3.65" length="2.51" shape="10.13,92.88,107.47 9.98,92.80,107.47 9.84,91.92,107.47 10.35,90.57,107.47"/>
    </edge>
    <edge id=":B1_6" function="internal">
        <lane id=":B1_6_0" index="0" speed="6.09" length="13.39" shape="13.91,101.60,107.47 11.28,100.19,107.47 9.50,96.93,107.47 9.04,93.24,107.47 10.35,90.57,107.47"/>
    </edge>
    <edge id=":B1_7" function="internal">
        <lane id=":B1_7_0" index="0" speed="3.24" length="3.20" shape="13.91,101.60,107.47 13.91,98.40,107.47"/>
    </edge>
    <edge id=":B1_8" function="internal">
        <lane id=":B1_8_0" index="0" speed="3.65" length="4.67" shape="13.91,101.60,107.47 12.71,100.80,107.47 12.31,100.00,107.47 12.71,99.20,107.47 13.91,98.40,107.47"/>
    </edge>
    <edge id=":C0_0" function="internal">
        <lane id=":C0_0_0" index="0" speed="13.04" length="15.29" shape="255.80,1.60,-25.65 252.20,2.33,-25.65 248.91,4.21,-25.65 245.87,6.74,-25.65 243.07,9.43,-25.65"/>
    </edge>
    <edge id=":C0_1" function="internal">
        <lane id=":C0_1_0" index="0" speed="13.89" length="17.19" shape="255.80,1.60,-25.65 238.60,1.60,-25.65"/>
    </edge>
    <edge id=":C0_2" function="internal">
        <lane id=":C0_2_0" index="0" speed="3.65" length="2.34" shape="255.80,1.60,-25.65 254.60,0.80,-25.65 254.20,0.00,-25.65"/>
    </edge>
    <edge id=":C0_9" function="internal">
        <lane id=":C0_9_0" index="0" speed="3.65" length="2.34" shape="254.20,0.00,-25.65 254.60,-0.80,-25.65 255.80,-1.60,-25.65"/>
    </edge>
    <edge id=":C0_3" function="internal">
        <lane id=":C0_3_0" index="0" speed="13.89" length="17.19" shape="238.60,-1.60,-25.65 255.80,-1.60,-25.65"/>
    </edge>
    <edge id=":C0_4" function="internal">
        <lane id=":C0_4_0" index="0" speed="7.43" length="7.80" shape="238.60,-1.60,-25.65 244.82,-0.91,-25.65 246.06,0.00,-25.65"/>
    </edge>
    <edge id=":C0_5" function="internal">
        <lane id=":C0_5_0" index="0" speed="3.65" length="2.34" shape="238.60,-1.60,-25.65 239.80,-0.80,-25.65 240.20,0.00,-25.65"/>
    </edge>
    <edge id=":C0_10" function="internal">
        <lane id=":C0_10_0" index="0" speed="7.43" length="11.71" shape="246.06,0.00,-25.65 247.64,1.16,-25.65 247.06,4.60,-25.65 243.07,9.43,-25.65"/>
    </edge>
    <edge id=":C0_11" function="internal">
        <lane id=":C0_11_0" index="0" speed="3.65" length="2.34" shape="240.20,0.00,-25.65 239.80,0.80,-25.65 238.60,1.60,-25.65"/>
    </edge>
    <edge id=":C0_6" function="internal">
        <lane id=":C0_6_0" index="0" speed="5.47" length="9.79" shape="240.84,7.13,-25.65 242.84,4.71,-25.65 243.14,2.98,-25.65 241.72,1.95,-25.65 238.60,1.60,-25.65"/>
    </edge>
    <edge id=":C0_7" function="internal">
        <lane id=":C0_7_0" index="0" speed="13.89" length="17.63" shape="240.84,7.13,-25.65 243.99,4.30,-25.65 247.79,1.46,-25.65 251.86,-0.72,-25.65 255.80,-1.60,-25.65"/>
    </edge>
    <edge id=":C0_8" function="internal">
        <lane id=":C0_8_0" index="0" speed="3.65" length="4.67" shape="240.84,7.13,-25.65 242.26,6.87,-25.65 243.11,7.17,-25.65 243.38,8.02,-25.65 243.07,9.43,-25.65"/>
    </edge>
    <edge id=":C1_0" function="internal">
        <lane id=":C1_0_0" index="0" speed="13.89" length="17.19" shape="159.26,101.60,-88.64 142.07,101.60,-88.64"/>
    </edge>
    <edge id=":C1_1" function="internal">
        <lane id=":C1_1_0" index="0" speed="7.43" length="7.80" shape="159.26,101.60,-88.64 153.04,100.91,-88.64 151.80,100.00,-88.64"/>
    </edge>
    <edge id=":C1_2" function="internal">
        <lane id=":C1_2_0" index="0" speed="3.65" length="2.34" shape="159.26,101.60,-88.64 158.06,100.80,-88.64 157.66,100.00,-88.64"/>
    </edge>
    <edge id=":C1_9" function="internal">
        <lane id=":C1_9_0" index="0" speed="7.43" length="11.71" shape="151.80,100.00,-88.64 150.22,98.84,-88.64 150.81,95.40,-88.64 154.79,90.57,-88.64"/>
    </edge>
    <edge id=":C1_10" function="internal">
        <lane id=":C1_10_0" index="0" speed="3.65" length="2.34" shape="157.66,100.00,-88.64 158.06,99.20,-88.64 159.26,98.40,-88.64"/>
    </edge>
    <edge id=":C1_3" function="internal">
        <lane id=":C1_3_0" index="0" speed="5.47" length="9.79" shape="157.02,92.87,-88.64 155.02,95.29,-88.64 154.73,97.02,-88.64 156.14,98.05,-88.64 159.26,98.40,-88.64"/>
    </edge>
    <edge id=":C1_4" function="internal">
        <lane id=":C1_4_0" index="0" speed="13.89" length="17.63" shape="157.02,92.87,-88.64 153.87,95.70,-88.64 150.07,98.54,-88.64 146.01,100.72,-88.64 142.07,101.60,-88.64"/>
    </edge>
    <edge id=":C1_5" function="internal">
        <lane id=":C1_5_0" index="0" speed="3.65" length="4.67" shape="157.02,92.87,-88.64 155.60,93.13,-88.64 154.76,92.83,-88.64 154.49,91.98,-88.64 154.79,90.57,-88.64"/>
    </edge>
    <edge id=":C1_6" function="internal">
        <lane id=":C1_6_0" index="0" speed="13.04" length="15.29" shape="142.07,98.40,-88.64 145.66,97.67,-88.64 148.96,95.79,-88.64 151.99,93.26,-88.64 154.79,90.57,-88.64"/>
    </edge>
    <edge id=":C1_7" function="internal">
        <lane id=":C1_7_0" index="0" speed="13.89" length="17.19" shape="142.07,98.40,-88.64 159.26,98.40,-88.64"/>
    </edge>
    <edge id=":C1_8" function="internal">
        <lane id=":C1_8_0" index="0" speed="3.65" length="2.34" shape="142.07,98.40,-88.64 143.27,99.20,-88.64 143.67,100.00,-88.64"/>
    </edge>
    <edge id=":C1_11" function="internal">
        <lane id=":C1_11_0" index="0" speed="3.65" length="2.34" shape="143.67,100.00,-88.64 143.27,100.80,-88.64 142.07,101.60,-88.64"/>
    </edge>
    <edge id=":D0_0" function="internal">
        <lane id=":D0_0_0" index="0" speed="12.43" length="14.79" shape="385.50,1.60,76.75 382.98,2.09,76.75 380.11,3.55,76.75 376.88,5.99,76.75 373.30,9.41,76.75"/>
    </edge>
    <edge id=":D0_1" function="internal">
        <lane id=":D0_1_0" index="0" speed="13.89" length="16.89" shape="385.50,1.60,76.75 368.62,1.60,76.75"/>
    </edge>
    <edge id=":D0_2" function="internal">
        <lane id=":D0_2_0" index="0" speed="3.65" length="2.34" shape="385.50,1.60,76.75 384.30,0.80,76.75 383.90,0.00,76.75"/>
    </edge>
    <edge id=":D0_9" function="internal">
        <lane id=":D0_9_0" index="0" speed="3.65" length="2.34" shape="383.90,0.00,76.75 384.30,-0.80,76.75 385.50,-1.60,76.75"/>
    </edge>
    <edge id=":D0_3" function="internal">
        <lane id=":D0_3_0" index="0" speed="13.89" length="16.89" shape="368.62,-1.60,76.75 385.50,-1.60,76.75"/>
    </edge>
    <edge id=":D0_4" function="internal">
        <lane id=":D0_4_0" index="0" speed="7.41" length="7.60" shape="368.62,-1.60,76.75 374.64,-0.91,76.75 375.87,0.00,76.75"/>
    </edge>
    <edge id=":D0_5" function="internal">
        <lane id=":D0_5_0" index="0" speed="3.65" length="2.34" shape="368.62,-1.60,76.75 369.82,-0.80,76.75 370.22,0.00,76.75"/>
    </edge>
    <edge id=":D0_10" function="internal">
        <lane id=":D0_10_0" index="0" speed="7.41" length="11.47" shape="375.87,0.00,76.75 377.43,1.15,76.75 376.98,4.59,76.75 373.30,9.41,76.75"/>
    </edge>
    <edge id=":D0_11" function="internal">
        <lane id=":D0_11_0" index="0" speed="3.65" length="2.34" shape="370.22,0.00,76.75 369.82,0.80,76.75 368.62,1.60,76.75"/>
    </edge>
    <edge id=":D0_6" function="internal">
        <lane id=":D0_6_0" index="0" speed="5.48" length="9.68" shape="370.99,7.19,76.75 372.86,4.74,76.75 373.09,3.00,76.75 371.68,1.95,76.75 368.62,1.60,76.75"/>
    </edge>
    <edge id=":D0_7" function="internal">
        <lane id=":D0_7_0" index="0" speed="13.43" length="17.35" shape="370.99,7.19,76.75 375.08,3.34,76.75 378.85,0.60,76.75 382.33,-1.05,76.75 385.50,-1.60,76.75"/>
    </edge>
    <edge id=":D0_8" function="internal">
        <lane id=":D0_8_0" index="0" speed="3.65" length="4.67" shape="370.99,7.19,76.75 372.40,6.88,76.75 373.26,7.15,76.75 373.55,7.99,76.75 373.30,9.41,76.75"/>
    </edge>
    <edge id=":D1_0" function="internal">
        <lane id=":D1_0_0" index="0" speed="13.89" length="16.89" shape="295.34,101.60,149.74 278.45,101.60,149.74"/>
    </edge>
    <edge id=":D1_1" function="internal">
        <lane id=":D1_1_0" index="0" speed="7.41" length="7.60" shape="295.34,101.60,149.74 289.31,100.91,149.74 288.08,100.00,149.74"/>
    </edge>
    <edge id=":D1_2" function="internal">
        <lane id=":D1_2_0" index="0" speed="3.65" length="2.34" shape="295.34,101.60,149.74 294.14,100.80,149.74 293.74,100.00,149.74"/>
    </edge>
    <edge id=":D1_9" function="internal">
        <lane id=":D1_9_0" index="0" speed="7.41" length="11.47" shape="288.08,100.00,149.74 286.52,98.85,149.74 286.97,95.41,149.74 290.66,90.59,149.74"/>
    </edge>
    <edge id=":D1_10" function="internal">
        <lane id=":D1_10_0" index="0" speed="3.65" length="2.34" shape="293.74,100.00,149.74 294.14,99.20,149.74 295.34,98.40,149.74"/>
    </edge>
    <edge id=":D1_3" function="internal">
        <lane id=":D1_3_0" index="0" speed="5.48" length="9.68" shape="292.96,92.81,149.74 291.09,95.26,149.74 290.86,97.00,149.74 292.28,98.05,149.74 295.34,98.40,149.74"/>
    </edge>
    <edge id=":D1_4" function="internal">
        <lane id=":D1_4_0" index="0" speed="13.43" length="17.35" shape="292.96,92.81,149.74 288.88,96.66,149.74 285.10,99.40,149.74 281.62,101.05,149.74 278.45,101.60,149.74"/>
    </edge>
    <edge id=":D1_5" function="internal">
        <lane id=":D1_5_0" index="0" speed="3.65" length="4.67" shape="292.96,92.81,149.74 291.55,93.12,149.74 290.70,92.85,149.74 290.40,92.01,149.74 290.66,90.59,149.74"/>
    </edge>
    <edge id=":D1_6" function="internal">
        <lane id=":D1_6_0" index="0" speed="12.43" length="14.79" shape="278.45,98.40,149.74 280.97,97.91,149.74 283.84,96.45,149.74 287.07,94.01,149.74 290.66,90.59,149.74"/>
    </edge>
    <edge id=":D1_7" function="internal">
        <lane id=":D1_7_0" index="0" speed="13.89" length="16.89" shape="278.45,98.40,149.74 295.34,98.40,149.74"/>
    </edge>
    <edge id=":D1_8" function="internal">
        <lane id=":D1_8_0" index="0" speed="3.65" length="2.34" shape="278.45,98.40,149.74 279.65,99.20,149.74 280.05,100.00,149.74"/>
    </edge>
    <edge id=":D1_11" function="internal">
        <lane id=":D1_11_0" index="0" speed="3.65" length="2.34" shape="280.05,100.00,149.74 279.65,100.80,149.74 278.45,101.60,149.74"/>
    </edge>
    <edge id=":E0_0" function="internal">
        <lane id=":E0_0_0" index="0" speed="6.68" length="9.25" shape="429.77,7.40,-200.13 429.32,4.86,-200.13 428.20,3.05,-200.13 426.43,1.96,-200.13 423.99,1.60,-200.13"/>
    </edge>
    <edge id=":E0_1" function="internal">
        <lane id=":E0_1_0" index="0" speed="7.93" length="14.36" shape="429.77,7.40,-200.13 430.17,3.46,-200.13 431.74,0.65,-200.13 434.48,-1.04,-200.13 438.40,-1.60,-200.13"/>
    </edge>
    <edge id=":E0_2" function="internal">
        <lane id=":E0_2_0" index="0" speed="3.65" length="4.67" shape="429.77,7.40,-200.13 430.52,6.17,-200.13 431.30,5.74,-200.13 432.12,6.10,-200.13 432.97,7.27,-200.13"/>
    </edge>
    <edge id=":E0_3" function="internal">
        <lane id=":E0_3_0" index="0" speed="6.42" length="9.04" shape="438.40,1.60,-200.13 435.93,1.95,-200.13 434.21,3.02,-200.13 433.22,4.79,-200.13 432.97,7.27,-200.13"/>
    </edge>
    <edge id=":E0_4" function="internal">
        <lane id=":E0_4_0" index="0" speed="13.89" length="14.41" shape="438.40,1.60,-200.13 423.99,1.60,-200.13"/>
    </edge>
    <edge id=":E0_5" function="internal">
        <lane id=":E0_5_0" index="0" speed="3.65" length="2.34" shape="438.40,1.60,-200.13 437.20,0.80,-200.13 436.80,0.00,-200.13"/>
    </edge>
    <edge id=":E0_9" function="internal">
        <lane id=":E0_9_0" index="0" speed="3.65" length="2.34" shape="436.80,0.00,-200.13 437.20,-0.80,-200.13 438.40,-1.60,-200.13"/>
    </edge>
    <edge id=":E0_6" function="internal">
        <lane id=":E0_6_0" index="0" speed="13.89" length="14.41" shape="423.99,-1.60,-200.13 438.40,-1.60,-200.13"/>
    </edge>
    <edge id=":E0_7" function="internal">
        <lane id=":E0_7_0" index="0" speed="8.14" length="5.85" shape="423.99,-1.60,-200.13 427.78,-1.05,-200.13 429.51,-0.00,-200.13"/>
    </edge>
    <edge id=":E0_8" function="internal">
        <lane id=":E0_8_0" index="0" speed="3.65" length="2.34" shape="423.99,-1.60,-200.13 425.19,-0.80,-200.13 425.59,0.00,-200.13"/>
    </edge>
    <edge id=":E0_10" function="internal">
        <lane id=":E0_10_0" index="0" speed="8.14" length="8.40" shape="429.51,-0.00,-200.13 430.53,0.62,-200.13 432.27,3.39,-200.13 432.97,7.27,-200.13"/>
    </edge>
    <edge id=":E0_11" function="internal">
        <lane id=":E0_11_0" index="0" speed="3.65" length="2.34" shape="425.59,0.00,-200.13 425.19,0.80,-200.13 423.99,1.60,-200.13"/>
    </edge>
    <edge id=":E1_0" function="internal">
        <lane id=":E1_0_0" index="0" speed="13.89" length="14.41" shape="442.42,101.60,-11.36 428.02,101.60,-11.36"/>
    </edge>
    <edge id=":E1_1" function="internal">
        <lane id=":E1_1_0" index="0" speed="8.14" length="5.85" shape="442.42,101.60,-11.36 438.64,101.05,-11.36 436.90,100.00,-11.36"/>
    </edge>
    <edge id=":E1_2" function="internal">
        <lane id=":E1_2_0" index="0" speed="3.65" length="2.34" shape="442.42,101.60,-11.36 441.22,100.80,-11.36 440.82,100.00,-11.36"/>
    </edge>
    <edge id=":E1_9" function="internal">
        <lane id=":E1_9_0" index="0" speed="8.14" length="8.40" shape="436.90,100.00,-11.36 435.88,99.38,-11.36 434.15,96.61,-11.36 433.44,92.73,-11.36"/>
    </edge>
    <edge id=":E1_10" function="internal">
        <lane id=":E1_10_0" index="0" speed="3.65" length="2.34" shape="440.82,100.00,-11.36 441.22,99.20,-11.36 442.42,98.40,-11.36"/>
    </edge>
    <edge id=":E1_3" function="internal">
        <lane id=":E1_3_0" index="0" speed="6.68" length="9.25" shape="436.64,92.60,-11.36 437.10,95.14,-11.36 438.21,96.95,-11.36 439.99,98.04,-11.36 442.42,98.40,-11.36"/>
    </edge>
    <edge id=":E1_4" function="internal">
        <lane id=":E1_4_0" index="0" speed="7.93" length="14.36" shape="436.64,92.60,-11.36 436.25,96.54,-11.36 434.68,99.35,-11.36 431.94,101.04,-11.36 428.02,101.60,-11.36"/>
    </edge>
    <edge id=":E1_5" function="internal">
        <lane id=":E1_5_0" index="0" speed="3.65" length="4.67" shape="436.64,92.60,-11.36 435.89,93.83,-11.36 435.11,94.26,-11.36 434.30,93.90,-11.36 433.44,92.73,-11.36"/>
    </edge>
    <edge id=":E1_6" function="internal">
        <lane id=":E1_6_0" index="0" speed="6.42" length="9.04" shape="428.02,98.40,-11.36 430.48,98.05,-11.36 432.21,96.98,-11.36 433.20,95.21,-11.36 433.44,92.73,-11.36"/>
    </edge>
    <edge id=":E1_7" function="internal">
        <lane id=":E1_7_0" index="0" speed="13.89" length="14.41" shape="428.02,98.40,-11.36 442.42,98.40,-11.36"/>
    </edge>
    <edge id=":E1_8" function="internal">
        <lane id=":E1_8_0" index="0" speed="3.65" length="2.34" shape="428.02,98.40,-11.36 429.22,99.20,-11.36 429.62,100.00,-11.36"/>
    </edge>
    <edge id=":E1_11" function="internal">
        <lane id=":E1_11_0" index="0" speed="3.65" length="2.34" shape="429.62,100.00,-11.36 429.22,100.80,-11.36 428.02,101.60,-11.36"/>
    </edge>
    <edge id=":F0_0" function="internal">
        <lane id=":F0_0_0" index="0" speed="7.84" length="10.65" shape="519.81,8.38,92.71 518.62,5.42,92.71 517.02,3.30,92.71 515.03,2.02,92.71 512.63,1.60,92.71"/>
    </edge>
    <edge id=":F0_1" function="internal">
        <lane id=":F0_1_0" index="0" speed="7.59" length="15.40" shape="519.81,8.38,92.71 519.18,4.02,92.71 520.22,0.90,92.71 522.93,-0.98,92.71 527.30,-1.60,92.71"/>
    </edge>
    <edge id=":F0_2" function="internal">
        <lane id=":F0_2_0" index="0" speed="3.65" length="4.67" shape="519.81,8.38,92.71 520.24,7.01,92.71 520.90,6.40,92.71 521.78,6.56,92.71 522.88,7.49,92.71"/>
    </edge>
    <edge id=":F0_3" function="internal">
        <lane id=":F0_3_0" index="0" speed="5.98" length="9.08" shape="527.30,1.60,92.71 524.72,1.97,92.71 523.13,3.07,92.71 522.51,4.91,92.71 522.88,7.49,92.71"/>
    </edge>
    <edge id=":F0_4" function="internal">
        <lane id=":F0_4_0" index="0" speed="13.89" length="14.67" shape="527.30,1.60,92.71 512.63,1.60,92.71"/>
    </edge>
    <edge id=":F0_5" function="internal">
        <lane id=":F0_5_0" index="0" speed="3.65" length="2.34" shape="527.30,1.60,92.71 526.10,0.80,92.71 525.70,0.00,92.71"/>
    </edge>
    <edge id=":F0_9" function="internal">
        <lane id=":F0_9_0" index="0" speed="3.65" length="2.34" shape="525.70,0.00,92.71 526.10,-0.80,92.71 527.30,-1.60,92.71"/>
    </edge>
    <edge id=":F0_6" function="internal">
        <lane id=":F0_6_0" index="0" speed="13.89" length="14.67" shape="512.63,-1.60,92.71 527.30,-1.60,92.71"/>
    </edge>
    <edge id=":F0_7" function="internal">
        <lane id=":F0_7_0" index="0" speed="9.15" length="5.56" shape="512.63,-1.60,92.71 516.12,-1.03,92.71 517.86,0.00,92.71"/>
    </edge>
    <edge id=":F0_8" function="internal">
        <lane id=":F0_8_0" index="0" speed="3.65" length="2.34" shape="512.63,-1.60,92.71 513.83,-0.80,92.71 514.23,0.00,92.71"/>
    </edge>
    <edge id=":F0_10" function="internal">
        <lane id=":F0_10_0" index="0" speed="9.15" length="9.24" shape="517.86,0.00,92.71 518.99,0.67,92.71 521.25,3.51,92.71 522.88,7.49,92.71"/>
    </edge>
    <edge id=":F0_11" function="internal">
        <lane id=":F0_11_0" index="0" speed="3.65" length="2.34" shape="514.23,0.00,92.71 513.83,0.80,92.71 512.63,1.60,92.71"/>
    </edge>
    <edge id=":F1_0" function="internal">
        <lane id=":F1_0_0" index="0" speed="7.21" length="13.78" shape="547.41,91.62,88.99 547.31,94.86,88.99 545.66,98.11,88.99 543.01,100.60,88.99 539.92,101.60,88.99"/>
    </edge>
    <edge id=":F1_1" function="internal">
        <lane id=":F1_1_0" index="0" speed="6.67" length="88.06" shape="547.41,91.62,88.99 548.39,95.98,55.27 548.44,99.10,31.77 547.56,100.98,16.18 545.74,101.60,1.70"/>
    </edge>
    <edge id=":F1_2" function="internal">
        <lane id=":F1_2_0" index="0" speed="3.65" length="2.23" shape="547.41,91.62,88.99 546.97,92.99,88.99 546.40,93.52,88.99"/>
    </edge>
    <edge id=":F1_9" function="internal">
        <lane id=":F1_9_0" index="0" speed="3.65" length="2.45" shape="546.40,93.52,88.99 546.32,93.60,88.99 545.44,93.44,88.99 544.33,92.51,88.99"/>
    </edge>
    <edge id=":F1_3" function="internal">
        <lane id=":F1_3_0" index="0" speed="5.08" length="87.52" shape="545.74,98.40,1.70 545.98,97.62,13.28 545.52,95.82,39.49 544.81,93.84,69.12 544.33,92.51,88.99"/>
    </edge>
    <edge id=":F1_4" function="internal">
        <lane id=":F1_4_0" index="0" speed="4.13" length="87.55" shape="545.74,98.40,1.70 539.92,101.60,88.99"/>
    </edge>
    <edge id=":F1_5" function="internal">
        <lane id=":F1_5_0" index="0" speed="3.65" length="1.16" shape="545.74,98.40,1.70 546.70,99.04,1.70"/>
    </edge>
    <edge id=":F1_10" function="internal">
        <lane id=":F1_10_0" index="0" speed="3.65" length="3.51" shape="546.70,99.04,1.70 546.94,99.20,1.70 547.34,100.00,1.70 546.94,100.80,1.70 545.74,101.60,1.70"/>
    </edge>
    <edge id=":F1_6" function="internal">
        <lane id=":F1_6_0" index="0" speed="4.13" length="87.55" shape="539.92,98.40,88.99 545.74,101.60,1.70"/>
    </edge>
    <edge id=":F1_7" function="internal">
        <lane id=":F1_7_0" index="0" speed="5.98" length="9.08" shape="539.92,98.40,88.99 542.49,98.03,88.99 544.09,96.93,88.99 544.70,95.09,88.99 544.33,92.51,88.99"/>
    </edge>
    <edge id=":F1_8" function="internal">
        <lane id=":F1_8_0" index="0" speed="3.65" length="4.67" shape="539.92,98.40,88.99 541.12,99.20,88.99 541.52,100.00,88.99 541.12,100.80,88.99 539.92,101.60,88.99"/>
    </edge>
    <edge id=":G0_0" function="internal">
        <lane id=":G0_0_0" index="0" speed="11.05" length="13.71" shape="625.29,1.60,-199.48 622.82,2.08,-199.48 620.18,3.53,-199.48 617.38,5.94,-199.48 614.42,9.31,-199.48"/>
    </edge>
    <edge id=":G0_1" function="internal">
        <lane id=":G0_1_0" index="0" speed="13.89" length="16.16" shape="625.29,1.60,-199.48 609.13,1.60,-199.48"/>
    </edge>
    <edge id=":G0_2" function="internal">
        <lane id=":G0_2_0" index="0" speed="3.65" length="2.34" shape="625.29,1.60,-199.48 624.09,0.80,-199.48 623.69,0.00,-199.48"/>
    </edge>
    <edge id=":G0_9" function="internal">
        <lane id=":G0_9_0" index="0" speed="3.65" length="2.34" shape="623.69,0.00,-199.48 624.09,-0.80,-199.48 625.29,-1.60,-199.48"/>
    </edge>
    <edge id=":G0_3" function="internal">
        <lane id=":G0_3_0" index="0" speed="13.89" length="16.16" shape="609.13,-1.60,-199.48 625.29,-1.60,-199.48"/>
    </edge>
    <edge id=":G0_4" function="internal">
        <lane id=":G0_4_0" index="0" speed="7.38" length="7.12" shape="609.13,-1.60,-199.48 614.68,-0.92,-199.48 615.90,0.00,-199.48"/>
    </edge>
    <edge id=":G0_5" function="internal">
        <lane id=":G0_5_0" index="0" speed="3.65" length="2.34" shape="609.13,-1.60,-199.48 610.33,-0.80,-199.48 610.73,0.00,-199.48"/>
    </edge>
    <edge id=":G0_10" function="internal">
        <lane id=":G0_10_0" index="0" speed="7.38" length="10.88" shape="615.90,0.00,-199.48 617.41,1.13,-199.48 617.32,4.54,-199.48 614.42,9.31,-199.48"/>
    </edge>
    <edge id=":G0_11" function="internal">
        <lane id=":G0_11_0" index="0" speed="3.65" length="2.34" shape="610.73,0.00,-199.48 610.33,0.80,-199.48 609.13,1.60,-199.48"/>
    </edge>
    <edge id=":G0_6" function="internal">
        <lane id=":G0_6_0" index="0" speed="5.54" length="9.45" shape="611.91,7.33,-199.48 613.43,4.82,-199.48 613.48,3.03,-199.48 612.04,1.96,-199.48 609.13,1.60,-199.48"/>
    </edge>
    <edge id=":G0_7" function="internal">
        <lane id=":G0_7_0" index="0" speed="12.12" length="16.58" shape="611.91,7.33,-199.48 615.39,3.42,-199.48 618.78,0.63,-199.48 622.08,-1.04,-199.48 625.29,-1.60,-199.48"/>
    </edge>
    <edge id=":G0_8" function="internal">
        <lane id=":G0_8_0" index="0" speed="3.65" length="4.67" shape="611.91,7.33,-199.48 613.28,6.88,-199.48 614.16,7.07,-199.48 614.54,7.88,-199.48 614.42,9.31,-199.48"/>
    </edge>
    <edge id=":G1_0" function="internal">
        <lane id=":G1_0_0" index="0" speed="4.13" length="87.65" shape="545.54,101.60,1.70 551.36,98.40,-85.71"/>
    </edge>
    <edge id=":G1_1" function="internal">
        <lane id=":G1_1_0" index="0" speed="6.73" length="88.53" shape="545.54,101.60,1.70 542.54,100.92,-16.56 541.63,98.87,-29.85 542.81,95.46,-51.27 546.08,90.69,-85.60"/>
    </edge>
    <edge id=":G1_2" function="internal">
        <lane id=":G1_2_0" index="0" speed="3.65" length="3.03" shape="545.54,101.60,1.70 544.34,100.80,1.70 543.94,100.00,1.70 544.25,99.38,1.70"/>
    </edge>
    <edge id=":G1_9" function="internal">
        <lane id=":G1_9_0" index="0" speed="3.65" length="1.64" shape="544.25,99.38,1.70 544.34,99.20,1.70 545.54,98.40,1.70"/>
    </edge>
    <edge id=":G1_3" function="internal">
        <lane id=":G1_3_0" index="0" speed="4.86" length="87.57" shape="548.59,92.67,-85.60 546.70,95.18,-45.97 545.56,96.97,-19.18 545.18,98.04,-4.76 545.54,98.40,1.70"/>
    </edge>
    <edge id=":G1_4" function="internal">
        <lane id=":G1_4_0" index="0" speed="5.54" length="9.45" shape="548.59,92.67,-85.60 547.06,95.18,-85.63 547.02,96.97,-85.65 548.45,98.04,-85.67 551.36,98.40,-85.71"/>
    </edge>
    <edge id=":G1_5" function="internal">
        <lane id=":G1_5_0" index="0" speed="3.65" length="2.21" shape="548.59,92.67,-85.60 547.21,93.12,-85.60 546.46,92.96,-85.60"/>
    </edge>
    <edge id=":G1_10" function="internal">
        <lane id=":G1_10_0" index="0" speed="3.65" length="2.46" shape="546.46,92.96,-85.60 546.34,92.93,-85.60 545.96,92.12,-85.60 546.08,90.69,-85.60"/>
    </edge>
    <edge id=":G1_6" function="internal">
        <lane id=":G1_6_0" index="0" speed="6.53" length="13.77" shape="551.36,101.60,-85.60 548.48,100.34,-85.60 546.26,97.33,-85.60 545.28,93.73,-85.60 546.08,90.69,-85.60"/>
    </edge>
    <edge id=":G1_7" function="internal">
        <lane id=":G1_7_0" index="0" speed="4.13" length="87.55" shape="551.36,101.60,-85.60 545.54,98.40,1.70"/>
    </edge>
    <edge id=":G1_8" function="internal">