<?xml version="1.0" encoding="UTF-8"?>

<!-- generated on 07/24/20 11:51:54 by Eclipse SUMO netgenerate Version 1.5.0
<configuration xmlns:xsi="http://www.w3.org/2001/XMLSchema-instance" xsi:noNamespaceSchemaLocation="http://sumo.dlr.de/xsd/netgenerateConfiguration.xsd">

    <grid_network>
        <grid value="true"/>
        <grid.x-number value="20"/>
        <grid.y-number value="2"/>
    </grid_network>

    <output>
        <output-file value="0.net.xml"/>
    </output>

    <processing>
        <perturb-x value="10"/>
        <perturb-z value="30"/>
    </processing>

    <random_number>
        <seed value="5379479"/>
    </random_number>

</configuration>
-->

<net version="1.3" junctionCornerDetail="5" limitTurnSpeed="5.50" xmlns:xsi="http://www.w3.org/2001/XMLSchema-instance" xsi:noNamespaceSchemaLocation="http://sumo.dlr.de/xsd/net_file.xsd">

    <location netOffset="-11.90,0.00" convBoundary="0.00,0.00,1880.50,100.00" origBoundary="11.90,0.00,1892.40,100.00" projParameter="!"/>

    <edge id=":A0_0" function="internal">
        <lane id=":A0_0_0" index="0" speed="3.91" length="3.08" shape="5.38,1.60,34.63 4.70,1.70,34.15 4.20,1.99,33.76 3.90,2.48,33.36 3.78,3.16,32.89"/>
    </edge>
    <edge id=":A0_1" function="internal">
        <lane id=":A0_1_0" index="0" speed="6.08" length="7.81" shape="0.59,3.09,32.89 0.93,1.04,33.36 1.84,-0.43,33.76 3.32,-1.31,34.15 5.38,-1.60,34.63"/>
    </edge>
    <edge id=":A1_0" function="internal">
        <lane id=":A1_0_0" index="0" speed="6.07" length="7.87" shape="3.27,101.60,-21.11 1.13,101.29,-21.08 -0.38,100.37,-21.06 -1.27,98.84,-21.04 -1.53,96.69,-21.01"/>
    </edge>
    <edge id=":A1_1" function="internal">
        <lane id=":A1_1_0" index="0" speed="3.90" length="2.63" shape="1.67,96.76,-21.01 1.76,97.48,-21.06 2.05,97.99,-21.10 2.56,98.30,-21.13 3.27,98.40,-21.18"/>
    </edge>
    <edge id=":B0_0" function="internal">
        <lane id=":B0_0_0" index="0" speed="7.65" length="10.43" shape="70.93,8.26,33.36 69.86,5.35,33.40 68.35,3.27,33.43 66.39,2.02,33.46 63.99,1.60,33.49"/>
    </edge>
    <edge id=":B0_1" function="internal">
        <lane id=":B0_1_0" index="0" speed="7.63" length="15.24" shape="70.93,8.26,33.36 70.47,3.95,33.36 71.59,0.87,33.36 74.30,-0.98,33.36 78.60,-1.60,33.36"/>
    </edge>
    <edge id=":B0_2" function="internal">
        <lane id=":B0_2_0" index="0" speed="3.65" length="4.67" shape="70.93,8.26,33.36 71.41,6.90,33.36 72.09,6.32,33.36 72.96,6.51,33.36 74.03,7.47,33.36"/>
    </edge>
    <edge id=":B0_3" function="internal">
        <lane id=":B0_3_0" index="0" speed="6.04" length="9.07" shape="78.60,1.60,33.36 76.04,1.97,33.36 74.43,3.07,33.36 73.76,4.90,33.36 74.03,7.47,33.36"/>
    </edge>
    <edge id=":B0_4" function="internal">
        <lane id=":B0_4_0" index="0" speed="13.89" length="14.60" shape="78.60,1.60,33.36 63.99,1.60,33.49"/>
    </edge>
    <edge id=":B0_5" function="internal">
        <lane id=":B0_5_0" index="0" speed="3.65" length="2.34" shape="78.60,1.60,33.36 77.40,0.80,33.36 77.00,0.00,33.36"/>
    </edge>
    <edge id=":B0_9" function="internal">
        <lane id=":B0_9_0" index="0" speed="3.65" length="2.34" shape="77.00,0.00,33.36 77.40,-0.80,33.36 78.60,-1.60,33.36"/>
    </edge>
    <edge id=":B0_6" function="internal">
        <lane id=":B0_6_0" index="0" speed="13.89" length="14.60" shape="63.99,-1.60,33.49 78.60,-1.60,33.36"/>
    </edge>
    <edge id=":B0_7" function="internal">
        <lane id=":B0_7_0" index="0" speed="8.98" length="5.59" shape="63.99,-1.60,33.49 67.52,-1.03,33.46 69.25,-0.00,33.44"/>
    </edge>
    <edge id=":B0_8" function="internal">
        <lane id=":B0_8_0" index="0" speed="3.65" length="2.34" shape="63.99,-1.60,33.49 65.19,-0.80,33.49 65.59,-0.00,33.49"/>
    </edge>
    <edge id=":B0_10" function="internal">
        <lane id=":B0_10_0" index="0" speed="8.98" length="9.11" shape="69.25,-0.00,33.44 70.37,0.67,33.43 72.54,3.50,33.40 74.03,7.47,33.36"/>
    </edge>
    <edge id=":B0_11" function="internal">
        <lane id=":B0_11_0" index="0" speed="3.65" length="2.34" shape="65.59,-0.00,33.49 65.19,0.80,33.49 63.99,1.60,33.49"/>
    </edge>
    <edge id=":B1_0" function="internal">
        <lane id=":B1_0_0" index="0" speed="13.89" length="14.60" shape="102.42,101.60,27.20 87.81,101.60,27.20"/>
    </edge>
    <edge id=":B1_1" function="internal">
        <lane id=":B1_1_0" index="0" speed="8.98" length="5.59" shape="102.42,101.60,27.20 98.89,101.03,27.23 97.16,100.00,27.24"/>
    </edge>
    <edge id=":B1_2" function="internal">
        <lane id=":B1_2_0" index="0" speed="3.65" length="2.34" shape="102.42,101.60,27.20 101.22,100.80,27.20 100.82,100.00,27.20"/>
    </edge>
    <edge id=":B1_9" function="internal">
        <lane id=":B1_9_0" index="0" speed="8.98" length="9.11" shape="97.16,100.00,27.24 96.04,99.33,27.25 93.87,96.50,27.28 92.38,92.53,27.31"/>
    </edge>
    <edge id=":B1_10" function="internal">
        <lane id=":B1_10_0" index="0" speed="3.65" length="2.34" shape="100.82,100.00,27.20 101.22,99.20,27.20 102.42,98.40,27.20"/>
    </edge>
    <edge id=":B1_3" function="internal">
        <lane id=":B1_3_0" index="0" speed="7.65" length="10.43" shape="95.48,91.74,27.31 96.55,94.65,27.28 98.06,96.73,27.25 100.02,97.98,27.23 102.42,98.40,27.20"/>
    </edge>
    <edge id=":B1_4" function="internal">
        <lane id=":B1_4_0" index="0" speed="7.63" length="15.24" shape="95.48,91.74,27.31 95.94,96.05,27.28 94.82,99.13,27.26 92.11,100.98,27.23 87.81,101.60,27.20"/>
    </edge>
    <edge id=":B1_5" function="internal">
        <lane id=":B1_5_0" index="0" speed="3.65" length="4.67" shape="95.48,91.74,27.31 95.00,93.10,27.31 94.32,93.68,27.31 93.45,93.49,27.31 92.38,92.53,27.31"/>
    </edge>
    <edge id=":B1_6" function="internal">
        <lane id=":B1_6_0" index="0" speed="6.04" length="9.07" shape="87.81,98.40,27.20 90.37,98.03,27.23 91.98,96.93,27.26 92.65,95.10,27.28 92.38,92.53,27.31"/>
    </edge>
    <edge id=":B1_7" function="internal">
        <lane id=":B1_7_0" index="0" speed="13.89" length="14.60" shape="87.81,98.40,27.20 102.42,98.40,27.20"/>
    </edge>
    <edge id=":B1_8" function="internal">
        <lane id=":B1_8_0" index="0" speed="3.65" length="2.34" shape="87.81,98.40,27.20 89.01,99.20,27.20 89.41,100.00,27.20"/>
    </edge>
    <edge id=":B1_11" function="internal">
        <lane id=":B1_11_0" index="0" speed="3.65" length="2.34" shape="89.41,100.00,27.20 89.01,100.80,27.20 87.81,101.60,27.20"/>
    </edge>
    <edge id=":C0_0" function="internal">
        <lane id=":C0_0_0" index="0" speed="6.70" length="9.28" shape="191.70,7.43,-10.76 191.23,4.88,-10.76 190.11,3.06,-10.76 188.33,1.96,-10.76 185.89,1.60,-10.76"/>
    </edge>
    <edge id=":C0_1" function="internal">
        <lane id=":C0_1_0" index="0" speed="7.92" length="14.38" shape="191.70,7.43,-10.76 192.07,3.48,-10.76 193.63,0.66,-10.76 196.37,-1.04,-10.76 200.30,-1.60,-10.76"/>
    </edge>
    <edge id=":C0_2" function="internal">
        <lane id=":C0_2_0" index="0" speed="3.65" length="4.67" shape="191.70,7.43,-10.76 192.44,6.19,-10.76 193.22,5.75,-10.76 194.04,6.11,-10.76 194.90,7.27,-10.76"/>
    </edge>
    <edge id=":C0_3" function="internal">
        <lane id=":C0_3_0" index="0" speed="6.40" length="9.04" shape="200.30,1.60,-10.76 197.83,1.95,-10.76 196.11,3.02,-10.76 195.13,4.79,-10.76 194.90,7.27,-10.76"/>
    </edge>
    <edge id=":C0_4" function="internal">
        <lane id=":C0_4_0" index="0" speed="13.89" length="14.41" shape="200.30,1.60,-10.76 185.89,1.60,-10.76"/>
    </edge>
    <edge id=":C0_5" function="internal">
        <lane id=":C0_5_0" index="0" speed="3.65" length="2.34" shape="200.30,1.60,-10.76 199.10,0.80,-10.76 198.70,0.00,-10.76"/>
    </edge>
    <edge id=":C0_9" function="internal">
        <lane id=":C0_9_0" index="0" speed="3.65" length="2.34" shape="198.70,0.00,-10.76 199.10,-0.80,-10.76 200.30,-1.60,-10.76"/>
    </edge>
    <edge id=":C0_6" function="internal">
        <lane id=":C0_6_0" index="0" speed="13.89" length="14.41" shape="185.89,-1.60,-10.76 200.30,-1.60,-10.76"/>
    </edge>
    <edge id=":C0_7" function="internal">
        <lane id=":C0_7_0" index="0" speed="8.16" length="5.84" shape="185.89,-1.60,-10.76 189.67,-1.05,-10.76 191.40,0.00,-10.76"/>
    </edge>
    <edge id=":C0_8" function="internal">
        <lane id=":C0_8_0" index="0" speed="3.65" length="2.34" shape="185.89,-1.60,-10.76 187.09,-0.80,-10.76 187.49,0.00,-10.76"/>
    </edge>
    <edge id=":C0_10" function="internal">
        <lane id=":C0_10_0" index="0" speed="8.16" length="8.42" shape="191.40,0.00,-10.76 192.43,0.62,-10.76 194.17,3.39,-10.76 194.90,7.27,-10.76"/>
    </edge>
    <edge id=":C0_11" function="internal">
        <lane id=":C0_11_0" index="0" speed="3.65" length="2.34" shape="187.49,0.00,-10.76 187.09,0.80,-10.76 185.89,1.60,-10.76"/>
    </edge>
    <edge id=":C1_0" function="internal">
        <lane id=":C1_0_0" index="0" speed="13.89" length="14.41" shape="204.89,101.60,-66.57 190.48,101.60,-66.57"/>
    </edge>
    <edge id=":C1_1" function="internal">
        <lane id=":C1_1_0" index="0" speed="8.16" length="5.84" shape="204.89,101.60,-66.57 201.11,101.05,-66.57 199.37,100.00,-66.57"/>
    </edge>
    <edge id=":C1_2" function="internal">
        <lane id=":C1_2_0" index="0" speed="3.65" length="2.34" shape="204.89,101.60,-66.57 203.69,100.80,-66.57 203.29,100.00,-66.57"/>
    </edge>
    <edge id=":C1_9" function="internal">
        <lane id=":C1_9_0" index="0" speed="8.16" length="8.42" shape="199.37,100.00,-66.57 198.35,99.38,-66.57 196.61,96.61,-66.57 195.88,92.73,-66.57"/>
    </edge>
    <edge id=":C1_10" function="internal">
        <lane id=":C1_10_0" index="0" speed="3.65" length="2.34" shape="203.29,100.00,-66.57 203.69,99.20,-66.57 204.89,98.40,-66.57"/>
    </edge>
    <edge id=":C1_3" function="internal">
        <lane id=":C1_3_0" index="0" speed="6.70" length="9.28" shape="199.08,92.57,-66.57 199.55,95.12,-66.57 200.67,96.94,-66.57 202.45,98.04,-66.57 204.89,98.40,-66.57"/>
    </edge>
    <edge id=":C1_4" function="internal">
        <lane id=":C1_4_0" index="0" speed="7.92" length="14.38" shape="199.08,92.57,-66.57 198.70,96.52,-66.57 197.15,99.34,-66.57 194.41,101.04,-66.57 190.48,101.60,-66.57"/>
    </edge>
    <edge id=":C1_5" function="internal">
        <lane id=":C1_5_0" index="0" speed="3.65" length="4.67" shape="199.08,92.57,-66.57 198.34,93.81,-66.57 197.56,94.25,-66.57 196.74,93.89,-66.57 195.88,92.73,-66.57"/>
    </edge>
    <edge id=":C1_6" function="internal">
        <lane id=":C1_6_0" index="0" speed="6.40" length="9.04" shape="190.48,98.40,-66.57 192.95,98.05,-66.57 194.67,96.98,-66.57 195.65,95.21,-66.57 195.88,92.73,-66.57"/>
    </edge>
    <edge id=":C1_7" function="internal">
        <lane id=":C1_7_0" index="0" speed="13.89" length="14.41" shape="190.48,98.40,-66.57 204.89,98.40,-66.57"/>
    </edge>
    <edge id=":C1_8" function="internal">
        <lane id=":C1_8_0" index="0" speed="3.65" length="2.34" shape="190.48,98.40,-66.57 191.68,99.20,-66.57 192.08,100.00,-66.57"/>
    </edge>
    <edge id=":C1_11" function="internal">
        <lane id=":C1_11_0" index="0" speed="3.65" length="2.34" shape="192.08,100.00,-66.57 191.68,100.80,-66.57 190.48,101.60,-66.57"/>
    </edge>
    <edge id=":D0_0" function="internal">
        <lane id=":D0_0_0" index="0" speed="6.83" length="9.45" shape="273.97,7.57,42.49 273.42,4.96,42.49 272.24,3.09,42.49 270.44,1.97,42.49 268.02,1.60,42.49"/>
    </edge>
    <edge id=":D0_1" function="internal">
        <lane id=":D0_1_0" index="0" speed="7.86" length="14.51" shape="273.97,7.57,42.49 274.22,3.56,42.49 275.72,0.69,42.49 278.46,-1.03,42.49 282.44,-1.60,42.49"/>
    </edge>
    <edge id=":D0_2" function="internal">
        <lane id=":D0_2_0" index="0" speed="3.65" length="4.67" shape="273.97,7.57,42.49 274.67,6.31,42.49 275.44,5.85,42.49 276.27,6.18,42.49 277.16,7.32,42.49"/>
    </edge>
    <edge id=":D0_3" function="internal">
        <lane id=":D0_3_0" index="0" speed="6.34" length="9.04" shape="282.44,1.60,42.49 279.96,1.96,42.49 278.25,3.03,42.49 277.32,4.81,42.49 277.16,7.32,42.49"/>
    </edge>
    <edge id=":D0_4" function="internal">
        <lane id=":D0_4_0" index="0" speed="13.89" length="14.42" shape="282.44,1.60,42.49 268.02,1.60,42.49"/>
    </edge>
    <edge id=":D0_5" function="internal">
        <lane id=":D0_5_0" index="0" speed="3.65" length="2.34" shape="282.44,1.60,42.49 281.24,0.80,42.49 280.84,0.00,42.49"/>
    </edge>
    <edge id=":D0_9" function="internal">
        <lane id=":D0_9_0" index="0" speed="3.65" length="2.34" shape="280.84,0.00,42.49 281.24,-0.80,42.49 282.44,-1.60,42.49"/>
    </edge>
    <edge id=":D0_6" function="internal">
        <lane id=":D0_6_0" index="0" speed="13.89" length="14.42" shape="268.02,-1.60,42.49 282.44,-1.60,42.49"/>
    </edge>
    <edge id=":D0_7" function="internal">
        <lane id=":D0_7_0" index="0" speed="8.28" length="5.79" shape="268.02,-1.60,42.49 271.75,-1.04,42.49 273.48,0.00,42.49"/>
    </edge>
    <edge id=":D0_8" function="internal">
        <lane id=":D0_8_0" index="0" speed="3.65" length="2.34" shape="268.02,-1.60,42.49 269.22,-0.80,42.49 269.62,0.00,42.49"/>
    </edge>
    <edge id=":D0_10" function="internal">
        <lane id=":D0_10_0" index="0" speed="8.28" length="8.53" shape="273.48,0.00,42.49 274.52,0.63,42.49 276.32,3.41,42.49 277.16,7.32,42.49"/>
    </edge>
    <edge id=":D0_11" function="internal">
        <lane id=":D0_11_0" index="0" speed="3.65" length="2.34" shape="269.62,0.00,42.49 269.22,0.80,42.49 268.02,1.60,42.49"/>
    </edge>
    <edge id=":D1_0" function="internal">
        <lane id=":D1_0_0" index="0" speed="13.89" length="14.42" shape="289.95,101.60,-7.39 275.53,101.60,-7.39"/>
    </edge>
    <edge id=":D1_1" function="internal">
        <lane id=":D1_1_0" index="0" speed="8.28" length="5.79" shape="289.95,101.60,-7.39 286.22,101.04,-7.39 284.49,100.00,-7.39"/>
    </edge>
    <edge id=":D1_2" function="internal">
        <lane id=":D1_2_0" index="0" speed="3.65" length="2.34" shape="289.95,101.60,-7.39 288.75,100.80,-7.39 288.35,100.00,-7.39"/>
    </edge>
    <edge id=":D1_9" function="internal">
        <lane id=":D1_9_0" index="0" speed="8.28" length="8.53" shape="284.49,100.00,-7.39 283.45,99.37,-7.39 281.64,96.59,-7.39 280.80,92.68,-7.39"/>
    </edge>
    <edge id=":D1_10" function="internal">
        <lane id=":D1_10_0" index="0" speed="3.65" length="2.34" shape="288.35,100.00,-7.39 288.75,99.20,-7.39 289.95,98.40,-7.39"/>
    </edge>
    <edge id=":D1_3" function="internal">
        <lane id=":D1_3_0" index="0" speed="6.83" length="9.45" shape="283.99,92.43,-7.39 284.54,95.04,-7.39 285.72,96.91,-7.39 287.52,98.03,-7.39 289.95,98.40,-7.39"/>
    </edge>
    <edge id=":D1_4" function="internal">
        <lane id=":D1_4_0" index="0" speed="7.86" length="14.51" shape="283.99,92.43,-7.39 283.74,96.44,-7.39 282.24,99.31,-7.39 279.51,101.03,-7.39 275.53,101.60,-7.39"/>
    </edge>
    <edge id=":D1_5" function="internal">
        <lane id=":D1_5_0" index="0" speed="3.65" length="4.67" shape="283.99,92.43,-7.39 283.29,93.69,-7.39 282.53,94.15,-7.39 281.70,93.82,-7.39 280.80,92.68,-7.39"/>
    </edge>
    <edge id=":D1_6" function="internal">
        <lane id=":D1_6_0" index="0" speed="6.34" length="9.04" shape="275.53,98.40,-7.39 278.01,98.04,-7.39 279.71,96.97,-7.39 280.64,95.19,-7.39 280.80,92.68,-7.39"/>
    </edge>
    <edge id=":D1_7" function="internal">
        <lane id=":D1_7_0" index="0" speed="13.89" length="14.42" shape="275.53,98.40,-7.39 289.95,98.40,-7.39"/>
    </edge>
    <edge id=":D1_8" function="internal">
        <lane id=":D1_8_0" index="0" speed="3.65" length="2.34" shape="275.53,98.40,-7.39 276.73,99.20,-7.39 277.13,100.00,-7.39"/>
    </edge>
    <edge id=":D1_11" function="internal">
        <lane id=":D1_11_0" index="0" speed="3.65" length="2.34" shape="277.13,100.00,-7.39 276.73,100.80,-7.39 275.53,101.60,-7.39"/>
    </edge>
    <edge id=":E0_0" function="internal">
        <lane id=":E0_0_0" index="0" speed="6.72" length="9.31" shape="379.47,7.45,27.89 378.99,4.89,27.89 377.85,3.06,27.89 376.07,1.97,27.89 373.64,1.60,27.89"/>
    </edge>
    <edge id=":E0_1" function="internal">
        <lane id=":E0_1_0" index="0" speed="7.91" length="14.40" shape="379.47,7.45,27.89 379.82,3.49,27.91 381.37,0.66,27.92 384.11,-1.03,27.94 388.05,-1.60,27.96"/>
    </edge>
    <edge id=":E0_2" function="internal">
        <lane id=":E0_2_0" index="0" speed="3.65" length="4.67" shape="379.47,7.45,27.89 380.20,6.21,27.89 380.98,5.77,27.89 381.80,6.12,27.89 382.66,7.28,27.89"/>
    </edge>
    <edge id=":E0_3" function="internal">
        <lane id=":E0_3_0" index="0" speed="6.39" length="9.04" shape="388.05,1.60,27.96 385.58,1.96,27.94 383.86,3.02,27.92 382.89,4.80,27.91 382.66,7.28,27.89"/>
    </edge>
    <edge id=":E0_4" function="internal">
        <lane id=":E0_4_0" index="0" speed="13.89" length="14.41" shape="388.05,1.60,27.96 373.64,1.60,27.89"/>
    </edge>
    <edge id=":E0_5" function="internal">
        <lane id=":E0_5_0" index="0" speed="3.65" length="2.34" shape="388.05,1.60,27.96 386.85,0.80,27.96 386.45,0.00,27.96"/>
    </edge>
    <edge id=":E0_9" function="internal">
        <lane id=":E0_9_0" index="0" speed="3.65" length="2.34" shape="386.45,0.00,27.96 386.85,-0.80,27.96 388.05,-1.60,27.96"/>
    </edge>
    <edge id=":E0_6" function="internal">
        <lane id=":E0_6_0" index="0" speed="13.89" length="14.41" shape="373.64,-1.60,27.89 388.05,-1.60,27.96"/>
    </edge>
    <edge id=":E0_7" function="internal">
        <lane id=":E0_7_0" index="0" speed="8.18" length="5.83" shape="373.64,-1.60,27.89 377.41,-1.04,27.89 379.14,0.00,27.89"/>
    </edge>
    <edge id=":E0_8" function="internal">
        <lane id=":E0_8_0" index="0" speed="3.65" length="2.34" shape="373.64,-1.60,27.89 374.84,-0.80,27.89 375.24,0.00,27.89"/>
    </edge>
    <edge id=":E0_10" function="internal">
        <lane id=":E0_10_0" index="0" speed="8.18" length="8.44" shape="379.14,0.00,27.89 380.17,0.62,27.89 381.92,3.40,27.89 382.66,7.28,27.89"/>
    </edge>
    <edge id=":E0_11" function="internal">
        <lane id=":E0_11_0" index="0" speed="3.65" length="2.34" shape="375.24,0.00,27.89 374.84,0.80,27.89 373.64,1.60,27.89"/>
    </edge>
    <edge id=":E1_0" function="internal">
        <lane id=":E1_0_0" index="0" speed="13.89" length="14.41" shape="393.08,101.60,-44.36 378.67,101.60,-44.36"/>
    </edge>
    <edge id=":E1_1" function="internal">
        <lane id=":E1_1_0" index="0" speed="8.18" length="5.83" shape="393.08,101.60,-44.36 389.31,101.04,-44.36 387.58,100.00,-44.36"/>
    </edge>
    <edge id=":E1_2" function="internal">
        <lane id=":E1_2_0" index="0" speed="3.65" length="2.34" shape="393.08,101.60,-44.36 391.88,100.80,-44.36 391.48,100.00,-44.36"/>
    </edge>
    <edge id=":E1_9" function="internal">
        <lane id=":E1_9_0" index="0" speed="8.18" length="8.44" shape="387.58,100.00,-44.36 386.55,99.38,-44.36 384.80,96.60,-44.36 384.06,92.72,-44.36"/>
    </edge>
    <edge id=":E1_10" function="internal">
        <lane id=":E1_10_0" index="0" speed="3.65" length="2.34" shape="391.48,100.00,-44.36 391.88,99.20,-44.36 393.08,98.40,-44.36"/>
    </edge>
    <edge id=":E1_3" function="internal">
        <lane id=":E1_3_0" index="0" speed="6.72" length="9.31" shape="387.25,92.55,-44.36 387.73,95.11,-44.36 388.87,96.94,-44.36 390.65,98.03,-44.36 393.08,98.40,-44.36"/>
    </edge>
    <edge id=":E1_4" function="internal">
        <lane id=":E1_4_0" index="0" speed="7.91" length="14.40" shape="387.25,92.55,-44.36 386.90,96.51,-44.36 385.35,99.34,-44.36 382.61,101.03,-44.36 378.67,101.60,-44.36"/>
    </edge>
    <edge id=":E1_5" function="internal">
        <lane id=":E1_5_0" index="0" speed="3.65" length="4.67" shape="387.25,92.55,-44.36 386.52,93.79,-44.36 385.74,94.23,-44.36 384.92,93.88,-44.36 384.06,92.72,-44.36"/>
    </edge>
    <edge id=":E1_6" function="internal">
        <lane id=":E1_6_0" index="0" speed="6.39" length="9.04" shape="378.67,98.40,-44.36 381.14,98.04,-44.36 382.86,96.98,-44.36 383.83,95.20,-44.36 384.06,92.72,-44.36"/>
    </edge>
    <edge id=":E1_7" function="internal">
        <lane id=":E1_7_0" index="0" speed="13.89" length="14.41" shape="378.67,98.40,-44.36 393.08,98.40,-44.36"/>
    </edge>
    <edge id=":E1_8" function="internal">
        <lane id=":E1_8_0" index="0" speed="3.65" length="2.34" shape="378.67,98.40,-44.36 379.87,99.20,-44.36 380.27,100.00,-44.36"/>
    </edge>
    <edge id=":E1_11" function="internal">
        <lane id=":E1_11_0" index="0" speed="3.65" length="2.34" shape="380.27,100.00,-44.36 379.87,100.80,-44.36 378.67,101.60,-44.36"/>
    </edge>
    <edge id=":F0_0" function="internal">
        <lane id=":F0_0_0" index="0" speed="7.03" length="9.69" shape="516.58,1.60,29.22 514.16,1.99,29.22 512.33,3.14,29.22 511.07,5.07,29.22 510.40,7.76,29.22"/>
    </edge>
    <edge id=":F0_1" function="internal">
        <lane id=":F0_1_0" index="0" speed="13.89" length="14.45" shape="516.58,1.60,29.22 502.13,1.60,29.14"/>
    </edge>
    <edge id=":F0_2" function="internal">
        <lane id=":F0_2_0" index="0" speed="3.65" length="2.34" shape="516.58,1.60,29.22 515.38,0.80,29.22 514.98,0.00,29.22"/>
    </edge>
    <edge id=":F0_9" function="internal">
        <lane id=":F0_9_0" index="0" speed="3.65" length="2.34" shape="514.98,0.00,29.22 515.38,-0.80,29.22 516.58,-1.60,29.22"/>
    </edge>
    <edge id=":F0_3" function="internal">
        <lane id=":F0_3_0" index="0" speed="13.89" length="14.45" shape="502.13,-1.60,29.14 516.58,-1.60,29.22"/>
    </edge>
    <edge id=":F0_4" function="internal">
        <lane id=":F0_4_0" index="0" speed="7.80" length="5.97" shape="502.13,-1.60,29.14 506.18,-1.01,29.16 507.76,-0.00,29.17"/>
    </edge>
    <edge id=":F0_5" function="internal">
        <lane id=":F0_5_0" index="0" speed="3.65" length="2.34" shape="502.13,-1.60,29.14 503.33,-0.80,29.14 503.73,0.00,29.14"/>
    </edge>
    <edge id=":F0_10" function="internal">
        <lane id=":F0_10_0" index="0" speed="7.80" length="8.71" shape="507.76,-0.00,29.17 508.91,0.74,29.18 510.32,3.67,29.20 510.40,7.76,29.22"/>
    </edge>
    <edge id=":F0_11" function="internal">
        <lane id=":F0_11_0" index="0" speed="3.65" length="2.34" shape="503.73,0.00,29.14 503.33,0.80,29.14 502.13,1.60,29.14"/>
    </edge>
    <edge id=":F0_6" function="internal">
        <lane id=":F0_6_0" index="0" speed="6.25" length="9.05" shape="507.22,7.37,29.22 507.17,4.84,29.20 506.31,3.04,29.18 504.63,1.96,29.16 502.13,1.60,29.14"/>
    </edge>
    <edge id=":F0_7" function="internal">
        <lane id=":F0_7_0" index="0" speed="8.44" length="14.40" shape="507.22,7.37,29.22 508.23,3.44,29.22 510.12,0.64,29.22 512.90,-1.04,29.22 516.58,-1.60,29.22"/>
    </edge>
    <edge id=":F0_8" function="internal">
        <lane id=":F0_8_0" index="0" speed="3.65" length="4.67" shape="507.22,7.37,29.22 508.17,6.27,29.22 509.01,5.98,29.22 509.75,6.47,29.22 510.40,7.76,29.22"/>
    </edge>
    <edge id=":F1_0" function="internal">
        <lane id=":F1_0_0" index="0" speed="13.89" length="14.45" shape="504.93,101.60,34.52 490.48,101.60,34.52"/>
    </edge>
    <edge id=":F1_1" function="internal">
        <lane id=":F1_1_0" index="0" speed="7.80" length="5.97" shape="504.93,101.60,34.52 500.88,101.01,34.52 499.30,100.00,34.52"/>
    </edge>
    <edge id=":F1_2" function="internal">
        <lane id=":F1_2_0" index="0" speed="3.65" length="2.34" shape="504.93,101.60,34.52 503.73,100.80,34.52 503.33,100.00,34.52"/>
    </edge>
    <edge id=":F1_9" function="internal">
        <lane id=":F1_9_0" index="0" speed="7.80" length="8.71" shape="499.30,100.00,34.52 498.15,99.26,34.52 496.74,96.33,34.52 496.66,92.24,34.52"/>
    </edge>
    <edge id=":F1_10" function="internal">
        <lane id=":F1_10_0" index="0" speed="3.65" length="2.34" shape="503.33,100.00,34.52 503.73,99.20,34.52 504.93,98.40,34.52"/>
    </edge>
    <edge id=":F1_3" function="internal">
        <lane id=":F1_3_0" index="0" speed="6.25" length="9.05" shape="499.84,92.63,34.52 499.89,95.16,34.52 500.75,96.96,34.52 502.43,98.04,34.52 504.93,98.40,34.52"/>
    </edge>
    <edge id=":F1_4" function="internal">
        <lane id=":F1_4_0" index="0" speed="8.44" length="14.40" shape="499.84,92.63,34.52 498.83,96.56,34.52 496.94,99.36,34.52 494.16,101.04,34.52 490.48,101.60,34.52"/>
    </edge>
    <edge id=":F1_5" function="internal">
        <lane id=":F1_5_0" index="0" speed="3.65" length="4.67" shape="499.84,92.63,34.52 498.90,93.73,34.52 498.05,94.02,34.52 497.31,93.53,34.52 496.66,92.24,34.52"/>
    </edge>
    <edge id=":F1_6" function="internal">
        <lane id=":F1_6_0" index="0" speed="7.03" length="9.69" shape="490.48,98.40,34.52 492.90,98.01,34.52 494.73,96.86,34.52 495.99,94.93,34.52 496.66,92.24,34.52"/>
    </edge>
    <edge id=":F1_7" function="internal">
        <lane id=":F1_7_0" index="0" speed="13.89" length="14.45" shape="490.48,98.40,34.52 504.93,98.40,34.52"/>
    </edge>
    <edge id=":F1_8" function="internal">
        <lane id=":F1_8_0" index="0" speed="3.65" length="2.34" shape="490.48,98.40,34.52 491.68,99.20,34.52 492.08,100.00,34.52"/>
    </edge>
    <edge id=":F1_11" function="internal">
        <lane id=":F1_11_0" index="0" speed="3.65" length="2.34" shape="492.08,100.00,34.52 491.68,100.80,34.52 490.48,101.60,34.52"/>
    </edge>
    <edge id=":G0_0" function="internal">
        <lane id=":G0_0_0" index="0" speed="6.94" length="9.58" shape="598.70,1.60,-14.94 596.28,1.98,-14.94 594.46,3.12,-14.94 593.24,5.02,-14.94 592.62,7.68,-14.94"/>
    </edge>
    <edge id=":G0_1" function="internal">
        <lane id=":G0_1_0" index="0" speed="13.89" length="14.44" shape="598.70,1.60,-14.94 584.26,1.60,-14.94"/>
    </edge>
    <edge id=":G0_2" function="internal">
        <lane id=":G0_2_0" index="0" speed="3.65" length="2.34" shape="598.70,1.60,-14.94 597.50,0.80,-14.94 597.10,0.00,-14.94"/>
    </edge>
    <edge id=":G0_9" function="internal">
        <lane id=":G0_9_0" index="0" speed="3.65" length="2.34" shape="597.10,0.00,-14.94 597.50,-0.80,-14.94 598.70,-1.60,-14.94"/>
    </edge>
    <edge id=":G0_3" function="internal">
        <lane id=":G0_3_0" index="0" speed="13.89" length="14.44" shape="584.26,-1.60,-14.94 598.70,-1.60,-14.94"/>
    </edge>
    <edge id=":G0_4" function="internal">
        <lane id=":G0_4_0" index="0" speed="7.82" length="5.96" shape="584.26,-1.60,-14.94 588.28,-1.02,-14.94 589.89,-0.00,-14.94"/>
    </edge>
    <edge id=":G0_5" function="internal">
        <lane id=":G0_5_0" index="0" speed="3.65" length="2.34" shape="584.26,-1.60,-14.94 585.46,-0.80,-14.94 585.86,0.00,-14.94"/>
    </edge>
    <edge id=":G0_10" function="internal">
        <lane id=":G0_10_0" index="0" speed="7.82" length="8.64" shape="589.89,-0.00,-14.94 591.02,0.72,-14.94 592.46,3.62,-14.94 592.62,7.68,-14.94"/>
    </edge>
    <edge id=":G0_11" function="internal">
        <lane id=":G0_11_0" index="0" speed="3.65" length="2.34" shape="585.86,0.00,-14.94 585.46,0.80,-14.94 584.26,1.60,-14.94"/>
    </edge>
    <edge id=":G0_6" function="internal">
        <lane id=":G0_6_0" index="0" speed="6.29" length="9.04" shape="589.44,7.34,-14.94 589.34,4.83,-14.94 588.45,3.04,-14.94 586.75,1.96,-14.94 584.26,1.60,-14.94"/>
    </edge>
    <edge id=":G0_7" function="internal">
        <lane id=":G0_7_0" index="0" speed="8.37" length="14.36" shape="589.44,7.34,-14.94 590.37,3.43,-14.94 592.22,0.64,-14.94 595.00,-1.04,-14.94 598.70,-1.60,-14.94"/>
    </edge>
    <edge id=":G0_8" function="internal">
        <lane id=":G0_8_0" index="0" speed="3.65" length="4.67" shape="589.44,7.34,-14.94 590.36,6.23,-14.94 591.20,5.92,-14.94 591.95,6.40,-14.94 592.62,7.68,-14.94"/>
    </edge>
    <edge id=":G1_0" function="internal">
        <lane id=":G1_0_0" index="0" speed="13.89" length="14.44" shape="588.89,101.60,12.28 574.45,101.60,12.28"/>
    </edge>
    <edge id=":G1_1" function="internal">
        <lane id=":G1_1_0" index="0" speed="7.82" length="5.96" shape="588.89,101.60,12.28 584.87,101.02,12.28 583.27,100.00,12.28"/>
    </edge>
    <edge id=":G1_2" function="internal">
        <lane id=":G1_2_0" index="0" speed="3.65" length="2.34" shape="588.89,101.60,12.28 587.69,100.80,12.28 587.29,100.00,12.28"/>
    </edge>
    <edge id=":G1_9" function="internal">
        <lane id=":G1_9_0" index="0" speed="7.82" length="8.64" shape="583.27,100.00,12.28 582.13,99.28,12.28 580.69,96.38,12.28 580.53,92.32,12.28"/>
    </edge>
    <edge id=":G1_10" function="internal">
        <lane id=":G1_10_0" index="0" speed="3.65" length="2.34" shape="587.29,100.00,12.28 587.69,99.20,12.28 588.89,98.40,12.28"/>
    </edge>
    <edge id=":G1_3" function="internal">
        <lane id=":G1_3_0" index="0" speed="6.29" length="9.04" shape="583.71,92.66,12.28 583.81,95.17,12.28 584.71,96.96,12.28 586.40,98.04,12.28 588.89,98.40,12.28"/>
    </edge>
    <edge id=":G1_4" function="internal">
        <lane id=":G1_4_0" index="0" speed="8.37" length="14.36" shape="583.71,92.66,12.28 582.78,96.57,12.28 580.93,99.36,12.28 578.15,101.04,12.28 574.45,101.60,12.28"/>
    </edge>
    <edge id=":G1_5" function="internal">
        <lane id=":G1_5_0" index="0" speed="3.65" length="4.67" shape="583.71,92.66,12.28 582.79,93.77,12.28 581.96,94.08,12.28 581.20,93.60,12.28 580.53,92.32,12.28"/>
    </edge>
    <edge id=":G1_6" function="internal">
        <lane id=":G1_6_0" index="0" speed="6.94" length="9.58" shape="574.45,98.40,12.28 576.87,98.02,12.28 578.69,96.88,12.28 579.91,94.98,12.28 580.53,92.32,12.28"/>
    </edge>
    <edge id=":G1_7" function="internal">
        <lane id=":G1_7_0" index="0" speed="13.89" length="14.44" shape="574.45,98.40,12.28 588.89,98.40,12.28"/>
    </edge>
    <edge id=":G1_8" function="internal">