<?xml version="1.0" encoding="UTF-8"?>

<!-- generated on 07/22/20 22:23:38 by Eclipse SUMO netgenerate Version 1.5.0
<configuration xmlns:xsi="http://www.w3.org/2001/XMLSchema-instance" xsi:noNamespaceSchemaLocation="http://sumo.dlr.de/xsd/netgenerateConfiguration.xsd">

    <grid_network>
        <grid value="true"/>
        <grid.x-number value="20"/>
        <grid.y-number value="2"/>
    </grid_network>

    <output>
        <output-file value="1.net.xml"/>
    </output>

    <processing>
        <perturb-x value="23"/>
        <perturb-z value="100"/>
    </processing>

    <random_number>
        <seed value="6831837"/>
    </random_number>

</configuration>
-->

<net version="1.3" junctionCornerDetail="5" limitTurnSpeed="5.50" xmlns:xsi="http://www.w3.org/2001/XMLSchema-instance" xsi:noNamespaceSchemaLocation="http://sumo.dlr.de/xsd/net_file.xsd">

    <location netOffset="29.00,0.00" convBoundary="0.00,0.00,1944.36,100.00" origBoundary="-29.00,0.00,1915.36,100.00" projParameter="!"/>

    <edge id=":A0_0" function="internal">
        <lane id=":A0_0_0" index="0" speed="3.95" length="9.76" shape="34.37,1.60,60.44 33.84,1.67,62.96 33.41,1.88,65.21 33.08,2.23,67.46 32.85,2.71,69.99"/>
    </edge>
    <edge id=":A0_1" function="internal">
        <lane id=":A0_1_0" index="0" speed="6.16" length="10.73" shape="29.80,1.74,69.99 30.49,0.28,67.65 31.48,-0.77,65.57 32.78,-1.39,63.49 34.37,-1.60,61.16"/>
    </edge>
    <edge id=":A1_0" function="internal">
        <lane id=":A1_0_0" index="0" speed="6.10" length="10.21" shape="4.39,101.60,152.57 1.63,101.21,153.53 -0.05,100.03,154.23 -0.65,98.08,154.93 -0.19,95.34,155.88"/>
    </edge>
    <edge id=":A1_1" function="internal">
        <lane id=":A1_1_0" index="0" speed="3.92" length="4.29" shape="2.86,96.31,155.88 2.71,97.23,155.07 2.91,97.88,154.46 3.47,98.27,153.86 4.39,98.40,153.04"/>
    </edge>
    <edge id=":B0_0" function="internal">
        <lane id=":B0_0_0" index="0" speed="7.08" length="9.75" shape="102.20,7.81,-137.49 101.50,5.09,-137.49 100.22,3.15,-137.49 98.38,1.99,-137.49 95.96,1.60,-137.49"/>
    </edge>
    <edge id=":B0_1" function="internal">
        <lane id=":B0_1_0" index="0" speed="7.78" length="14.73" shape="102.20,7.81,-137.49 102.24,3.69,-137.49 103.62,0.75,-137.49 106.35,-1.01,-137.49 110.42,-1.60,-137.49"/>
    </edge>
    <edge id=":B0_2" function="internal">
        <lane id=":B0_2_0" index="0" speed="3.65" length="4.67" shape="102.20,7.81,-137.49 102.83,6.51,-137.49 103.57,6.01,-137.49 104.42,6.30,-137.49 105.37,7.38,-137.49"/>
    </edge>
    <edge id=":B0_3" function="internal">
        <lane id=":B0_3_0" index="0" speed="6.24" length="9.05" shape="110.42,1.60,-137.49 107.92,1.96,-137.49 106.25,3.04,-137.49 105.40,4.85,-137.49 105.37,7.38,-137.49"/>
    </edge>
    <edge id=":B0_4" function="internal">
        <lane id=":B0_4_0" index="0" speed="13.89" length="14.46" shape="110.42,1.60,-137.49 95.96,1.60,-137.49"/>
    </edge>
    <edge id=":B0_5" function="internal">
        <lane id=":B0_5_0" index="0" speed="3.65" length="2.34" shape="110.42,1.60,-137.49 109.22,0.80,-137.49 108.82,0.00,-137.49"/>
    </edge>
    <edge id=":B0_9" function="internal">
        <lane id=":B0_9_0" index="0" speed="3.65" length="2.34" shape="108.82,0.00,-137.49 109.22,-0.80,-137.49 110.42,-1.60,-137.49"/>
    </edge>
    <edge id=":B0_6" function="internal">
        <lane id=":B0_6_0" index="0" speed="13.89" length="14.46" shape="95.96,-1.60,-137.49 110.42,-1.60,-137.49"/>
    </edge>
    <edge id=":B0_7" function="internal">
        <lane id=":B0_7_0" index="0" speed="8.48" length="5.71" shape="95.96,-1.60,-137.49 99.63,-1.04,-137.49 101.35,0.00,-137.49"/>
    </edge>
    <edge id=":B0_8" function="internal">
        <lane id=":B0_8_0" index="0" speed="3.65" length="2.34" shape="95.96,-1.60,-137.49 97.16,-0.80,-137.49 97.56,-0.00,-137.49"/>
    </edge>
    <edge id=":B0_10" function="internal">
        <lane id=":B0_10_0" index="0" speed="8.48" length="8.71" shape="101.35,0.00,-137.49 102.41,0.64,-137.49 104.33,3.45,-137.49 105.37,7.38,-137.49"/>
    </edge>
    <edge id=":B0_11" function="internal">
        <lane id=":B0_11_0" index="0" speed="3.65" length="2.34" shape="97.56,-0.00,-137.49 97.16,0.80,-137.49 95.96,1.60,-137.49"/>
    </edge>
    <edge id=":B1_0" function="internal">
        <lane id=":B1_0_0" index="0" speed="13.89" length="14.46" shape="123.07,101.60,-17.18 108.61,101.60,-17.18"/>
    </edge>
    <edge id=":B1_1" function="internal">
        <lane id=":B1_1_0" index="0" speed="8.48" length="5.71" shape="123.07,101.60,-17.18 119.41,101.04,-17.18 117.69,100.00,-17.18"/>
    </edge>
    <edge id=":B1_2" function="internal">
        <lane id=":B1_2_0" index="0" speed="3.65" length="2.34" shape="123.07,101.60,-17.18 121.87,100.80,-17.18 121.47,100.00,-17.18"/>
    </edge>
    <edge id=":B1_9" function="internal">
        <lane id=":B1_9_0" index="0" speed="8.48" length="8.71" shape="117.69,100.00,-17.18 116.62,99.36,-17.18 114.70,96.55,-17.18 113.66,92.62,-17.18"/>
    </edge>
    <edge id=":B1_10" function="internal">
        <lane id=":B1_10_0" index="0" speed="3.65" length="2.34" shape="121.47,100.00,-17.18 121.87,99.20,-17.18 123.07,98.40,-17.18"/>
    </edge>
    <edge id=":B1_3" function="internal">
        <lane id=":B1_3_0" index="0" speed="7.08" length="9.75" shape="116.83,92.19,-17.18 117.54,94.91,-17.18 118.81,96.85,-17.18 120.66,98.01,-17.18 123.07,98.40,-17.18"/>
    </edge>
    <edge id=":B1_4" function="internal">
        <lane id=":B1_4_0" index="0" speed="7.78" length="14.73" shape="116.83,92.19,-17.18 116.80,96.31,-17.18 115.41,99.25,-17.18 112.68,101.01,-17.18 108.61,101.60,-17.18"/>
    </edge>
    <edge id=":B1_5" function="internal">
        <lane id=":B1_5_0" index="0" speed="3.65" length="4.67" shape="116.83,92.19,-17.18 116.20,93.49,-17.18 115.46,93.99,-17.18 114.61,93.70,-17.18 113.66,92.62,-17.18"/>
    </edge>
    <edge id=":B1_6" function="internal">
        <lane id=":B1_6_0" index="0" speed="6.24" length="9.05" shape="108.61,98.40,-17.18 111.11,98.04,-17.18 112.79,96.96,-17.18 113.64,95.15,-17.18 113.66,92.62,-17.18"/>
    </edge>
    <edge id=":B1_7" function="internal">
        <lane id=":B1_7_0" index="0" speed="13.89" length="14.46" shape="108.61,98.40,-17.18 123.07,98.40,-17.18"/>
    </edge>
    <edge id=":B1_8" function="internal">
        <lane id=":B1_8_0" index="0" speed="3.65" length="2.34" shape="108.61,98.40,-17.18 109.81,99.20,-17.18 110.21,100.00,-17.18"/>
    </edge>
    <edge id=":B1_11" function="internal">
        <lane id=":B1_11_0" index="0" speed="3.65" length="2.34" shape="110.21,100.00,-17.18 109.81,100.80,-17.18 108.61,101.60,-17.18"/>
    </edge>
    <edge id=":C0_0" function="internal">
        <lane id=":C0_0_0" index="0" speed="7.26" length="9.98" shape="278.38,1.60,9.62 275.97,2.00,9.62 274.09,3.19,9.62 272.74,5.18,9.62 271.92,7.97,9.62"/>
    </edge>
    <edge id=":C0_1" function="internal">
        <lane id=":C0_1_0" index="0" speed="13.89" length="14.50" shape="278.38,1.60,9.62 263.88,1.60,9.62"/>
    </edge>
    <edge id=":C0_2" function="internal">
        <lane id=":C0_2_0" index="0" speed="3.65" length="2.34" shape="278.38,1.60,9.62 277.18,0.80,9.62 276.78,0.00,9.62"/>
    </edge>
    <edge id=":C0_9" function="internal">
        <lane id=":C0_9_0" index="0" speed="3.65" length="2.34" shape="276.78,0.00,9.62 277.18,-0.80,9.62 278.38,-1.60,9.62"/>
    </edge>
    <edge id=":C0_3" function="internal">
        <lane id=":C0_3_0" index="0" speed="13.89" length="14.50" shape="263.88,-1.60,9.62 278.38,-1.60,9.62"/>
    </edge>
    <edge id=":C0_4" function="internal">
        <lane id=":C0_4_0" index="0" speed="7.72" length="6.01" shape="263.88,-1.60,9.62 268.03,-1.00,9.62 269.55,0.00,9.62"/>
    </edge>
    <edge id=":C0_5" function="internal">
        <lane id=":C0_5_0" index="0" speed="3.65" length="2.34" shape="263.88,-1.60,9.62 265.08,-0.80,9.62 265.48,0.00,9.62"/>
    </edge>
    <edge id=":C0_10" function="internal">
        <lane id=":C0_10_0" index="0" speed="7.72" length="8.89" shape="269.55,0.00,9.62 270.75,0.79,9.62 272.04,3.78,9.62 271.92,7.97,9.62"/>
    </edge>
    <edge id=":C0_11" function="internal">
        <lane id=":C0_11_0" index="0" speed="3.65" length="2.34" shape="265.48,0.00,9.62 265.08,0.80,9.62 263.88,1.60,9.62"/>
    </edge>
    <edge id=":C0_6" function="internal">
        <lane id=":C0_6_0" index="0" speed="6.16" length="9.05" shape="268.77,7.42,9.62 268.84,4.87,9.62 268.05,3.05,9.62 266.40,1.96,9.62 263.88,1.60,9.62"/>
    </edge>
    <edge id=":C0_7" function="internal">
        <lane id=":C0_7_0" index="0" speed="8.64" length="14.51" shape="268.77,7.42,9.62 269.96,3.47,9.62 271.96,0.65,9.62 274.77,-1.04,9.62 278.38,-1.60,9.62"/>
    </edge>
    <edge id=":C0_8" function="internal">
        <lane id=":C0_8_0" index="0" speed="3.65" length="4.67" shape="268.77,7.42,9.62 269.76,6.37,9.62 270.62,6.12,9.62 271.34,6.65,9.62 271.92,7.97,9.62"/>
    </edge>
    <edge id=":C1_0" function="internal">
        <lane id=":C1_0_0" index="0" speed="13.89" length="14.50" shape="261.97,101.60,-32.04 247.47,101.60,-32.04"/>
    </edge>
    <edge id=":C1_1" function="internal">
        <lane id=":C1_1_0" index="0" speed="7.72" length="6.01" shape="261.97,101.60,-32.04 257.82,101.00,-32.04 256.30,100.00,-32.04"/>
    </edge>
    <edge id=":C1_2" function="internal">
        <lane id=":C1_2_0" index="0" speed="3.65" length="2.34" shape="261.97,101.60,-32.04 260.77,100.80,-32.04 260.37,100.00,-32.04"/>
    </edge>
    <edge id=":C1_9" function="internal">
        <lane id=":C1_9_0" index="0" speed="7.72" length="8.89" shape="256.30,100.00,-32.04 255.10,99.21,-32.04 253.81,96.22,-32.04 253.93,92.03,-32.04"/>
    </edge>
    <edge id=":C1_10" function="internal">
        <lane id=":C1_10_0" index="0" speed="3.65" length="2.34" shape="260.37,100.00,-32.04 260.77,99.20,-32.04 261.97,98.40,-32.04"/>
    </edge>
    <edge id=":C1_3" function="internal">
        <lane id=":C1_3_0" index="0" speed="6.16" length="9.05" shape="257.08,92.58,-32.04 257.01,95.13,-32.04 257.80,96.95,-32.04 259.45,98.04,-32.04 261.97,98.40,-32.04"/>
    </edge>
    <edge id=":C1_4" function="internal">
        <lane id=":C1_4_0" index="0" speed="8.64" length="14.51" shape="257.08,92.58,-32.04 255.89,96.53,-32.04 253.89,99.35,-32.04 251.08,101.04,-32.04 247.47,101.60,-32.04"/>
    </edge>
    <edge id=":C1_5" function="internal">
        <lane id=":C1_5_0" index="0" speed="3.65" length="4.67" shape="257.08,92.58,-32.04 256.09,93.63,-32.04 255.23,93.88,-32.04 254.51,93.35,-32.04 253.93,92.03,-32.04"/>
    </edge>
    <edge id=":C1_6" function="internal">
        <lane id=":C1_6_0" index="0" speed="7.26" length="9.98" shape="247.47,98.40,-32.04 249.88,98.00,-32.04 251.76,96.81,-32.04 253.11,94.82,-32.04 253.93,92.03,-32.04"/>
    </edge>
    <edge id=":C1_7" function="internal">
        <lane id=":C1_7_0" index="0" speed="13.89" length="14.50" shape="247.47,98.40,-32.04 261.97,98.40,-32.04"/>
    </edge>
    <edge id=":C1_8" function="internal">
        <lane id=":C1_8_0" index="0" speed="3.65" length="2.34" shape="247.47,98.40,-32.04 248.67,99.20,-32.04 249.07,100.00,-32.04"/>
    </edge>
    <edge id=":C1_11" function="internal">
        <lane id=":C1_11_0" index="0" speed="3.65" length="2.34" shape="249.07,100.00,-32.04 248.67,100.80,-32.04 247.47,101.60,-32.04"/>
    </edge>
    <edge id=":D0_0" function="internal">
        <lane id=":D0_0_0" index="0" speed="7.21" length="9.92" shape="335.13,7.93,64.33 334.34,5.16,64.33 333.01,3.18,64.33 331.14,2.00,64.33 328.73,1.60,64.33"/>
    </edge>
    <edge id=":D0_1" function="internal">
        <lane id=":D0_1_0" index="0" speed="7.74" length="14.85" shape="335.13,7.93,64.33 335.05,3.76,64.33 336.37,0.78,64.33 339.10,-1.00,64.33 343.22,-1.60,64.33"/>
    </edge>
    <edge id=":D0_2" function="internal">
        <lane id=":D0_2_0" index="0" speed="3.65" length="4.67" shape="335.13,7.93,64.33 335.73,6.61,64.33 336.45,6.09,64.33 337.31,6.35,64.33 338.29,7.41,64.33"/>
    </edge>
    <edge id=":D0_3" function="internal">
        <lane id=":D0_3_0" index="0" speed="6.18" length="9.05" shape="343.22,1.60,64.33 340.71,1.96,64.33 339.05,3.05,64.33 338.24,4.87,64.33 338.29,7.41,64.33"/>
    </edge>
    <edge id=":D0_4" function="internal">
        <lane id=":D0_4_0" index="0" speed="13.89" length="14.49" shape="343.22,1.60,64.33 328.73,1.60,64.33"/>
    </edge>
    <edge id=":D0_5" function="internal">
        <lane id=":D0_5_0" index="0" speed="3.65" length="2.34" shape="343.22,1.60,64.33 342.02,0.80,64.33 341.62,0.00,64.33"/>
    </edge>
    <edge id=":D0_9" function="internal">
        <lane id=":D0_9_0" index="0" speed="3.65" length="2.34" shape="341.62,0.00,64.33 342.02,-0.80,64.33 343.22,-1.60,64.33"/>
    </edge>
    <edge id=":D0_6" function="internal">
        <lane id=":D0_6_0" index="0" speed="13.89" length="14.49" shape="328.73,-1.60,64.33 343.22,-1.60,64.33"/>
    </edge>
    <edge id=":D0_7" function="internal">
        <lane id=":D0_7_0" index="0" speed="8.60" length="5.68" shape="328.73,-1.60,64.33 332.36,-1.04,64.33 334.08,0.00,64.33"/>
    </edge>
    <edge id=":D0_8" function="internal">
        <lane id=":D0_8_0" index="0" speed="3.65" length="2.34" shape="328.73,-1.60,64.33 329.93,-0.80,64.33 330.33,0.00,64.33"/>
    </edge>
    <edge id=":D0_10" function="internal">
        <lane id=":D0_10_0" index="0" speed="8.60" length="8.81" shape="334.08,0.00,64.33 335.16,0.65,64.33 337.14,3.47,64.33 338.29,7.41,64.33"/>
    </edge>
    <edge id=":D0_11" function="internal">
        <lane id=":D0_11_0" index="0" speed="3.65" length="2.34" shape="330.33,0.00,64.33 329.93,0.80,64.33 328.73,1.60,64.33"/>
    </edge>
    <edge id=":D1_0" function="internal">
        <lane id=":D1_0_0" index="0" speed="13.89" length="14.49" shape="358.60,101.60,-41.50 344.12,101.60,-41.50"/>
    </edge>
    <edge id=":D1_1" function="internal">
        <lane id=":D1_1_0" index="0" speed="8.60" length="5.68" shape="358.60,101.60,-41.50 354.98,101.04,-41.50 353.26,100.00,-41.50"/>
    </edge>
    <edge id=":D1_2" function="internal">
        <lane id=":D1_2_0" index="0" speed="3.65" length="2.34" shape="358.60,101.60,-41.50 357.40,100.80,-41.50 357.00,100.00,-41.50"/>
    </edge>
    <edge id=":D1_9" function="internal">
        <lane id=":D1_9_0" index="0" speed="8.60" length="8.81" shape="353.26,100.00,-41.50 352.18,99.35,-41.50 350.20,96.53,-41.50 349.05,92.59,-41.50"/>
    </edge>
    <edge id=":D1_10" function="internal">
        <lane id=":D1_10_0" index="0" speed="3.65" length="2.34" shape="357.00,100.00,-41.50 357.40,99.20,-41.50 358.60,98.40,-41.50"/>
    </edge>
    <edge id=":D1_3" function="internal">
        <lane id=":D1_3_0" index="0" speed="7.21" length="9.92" shape="352.20,92.07,-41.50 352.99,94.84,-41.50 354.32,96.82,-41.50 356.19,98.00,-41.50 358.60,98.40,-41.50"/>
    </edge>
    <edge id=":D1_4" function="internal">
        <lane id=":D1_4_0" index="0" speed="7.74" length="14.85" shape="352.20,92.07,-41.50 352.29,96.24,-41.50 350.96,99.22,-41.50 348.24,101.00,-41.50 344.12,101.60,-41.50"/>
    </edge>
    <edge id=":D1_5" function="internal">
        <lane id=":D1_5_0" index="0" speed="3.65" length="4.67" shape="352.20,92.07,-41.50 351.61,93.39,-41.50 350.88,93.91,-41.50 350.03,93.65,-41.50 349.05,92.59,-41.50"/>
    </edge>
    <edge id=":D1_6" function="internal">
        <lane id=":D1_6_0" index="0" speed="6.18" length="9.05" shape="344.12,98.40,-41.50 346.63,98.04,-41.50 348.29,96.95,-41.50 349.10,95.13,-41.50 349.05,92.59,-41.50"/>
    </edge>
    <edge id=":D1_7" function="internal">
        <lane id=":D1_7_0" index="0" speed="13.89" length="14.49" shape="344.12,98.40,-41.50 358.60,98.40,-41.50"/>
    </edge>
    <edge id=":D1_8" function="internal">
        <lane id=":D1_8_0" index="0" speed="3.65" length="2.34" shape="344.12,98.40,-41.50 345.32,99.20,-41.50 345.72,100.00,-41.50"/>
    </edge>
    <edge id=":D1_11" function="internal">
        <lane id=":D1_11_0" index="0" speed="3.65" length="2.34" shape="345.72,100.00,-41.50 345.32,100.80,-41.50 344.12,101.60,-41.50"/>
    </edge>
    <edge id=":E0_0" function="internal">
        <lane id=":E0_0_0" index="0" speed="10.72" length="13.44" shape="393.39,9.28,-47.18 390.58,5.92,-47.18 387.89,3.52,-47.18 385.32,2.08,-47.18 382.86,1.60,-47.18"/>
    </edge>
    <edge id=":E0_1" function="internal">
        <lane id=":E0_1_0" index="0" speed="7.38" length="17.74" shape="393.39,9.28,-47.18 390.69,4.52,-47.18 390.70,1.12,-47.18 393.42,-0.92,-47.18 398.85,-1.60,-47.18"/>
    </edge>
    <edge id=":E0_2" function="internal">
        <lane id=":E0_2_0" index="0" speed="3.65" length="4.67" shape="393.39,9.28,-47.18 393.31,7.84,-47.18 393.72,7.04,-47.18 394.60,6.88,-47.18 395.95,7.36,-47.18"/>
    </edge>
    <edge id=":E0_3" function="internal">
        <lane id=":E0_3_0" index="0" speed="5.56" length="9.40" shape="398.85,1.60,-47.18 395.97,1.96,-47.18 394.53,3.04,-47.18 394.52,4.84,-47.18 395.95,7.36,-47.18"/>
    </edge>
    <edge id=":E0_4" function="internal">
        <lane id=":E0_4_0" index="0" speed="13.89" length="15.98" shape="398.85,1.60,-47.18 382.86,1.60,-47.18"/>
    </edge>
    <edge id=":E0_5" function="internal">
        <lane id=":E0_5_0" index="0" speed="3.65" length="2.34" shape="398.85,1.60,-47.18 397.65,0.80,-47.18 397.25,0.00,-47.18"/>
    </edge>
    <edge id=":E0_9" function="internal">
        <lane id=":E0_9_0" index="0" speed="3.65" length="2.34" shape="397.25,0.00,-47.18 397.65,-0.80,-47.18 398.85,-1.60,-47.18"/>
    </edge>
    <edge id=":E0_6" function="internal">
        <lane id=":E0_6_0" index="0" speed="13.89" length="15.98" shape="382.86,-1.60,-47.18 398.85,-1.60,-47.18"/>
    </edge>
    <edge id=":E0_7" function="internal">
        <lane id=":E0_7_0" index="0" speed="11.81" length="5.54" shape="382.86,-1.60,-47.18 386.08,-1.04,-47.18 388.10,0.00,-47.18"/>
    </edge>
    <edge id=":E0_8" function="internal">
        <lane id=":E0_8_0" index="0" speed="3.65" length="2.34" shape="382.86,-1.60,-47.18 384.06,-0.80,-47.18 384.46,0.00,-47.18"/>
    </edge>
    <edge id=":E0_10" function="internal">
        <lane id=":E0_10_0" index="0" speed="11.81" length="10.86" shape="388.10,0.00,-47.18 389.34,0.64,-47.18 392.63,3.44,-47.18 395.95,7.36,-47.18"/>
    </edge>
    <edge id=":E0_11" function="internal">
        <lane id=":E0_11_0" index="0" speed="3.65" length="2.34" shape="384.46,0.00,-47.18 384.06,0.80,-47.18 382.86,1.60,-47.18"/>
    </edge>
    <edge id=":E1_0" function="internal">
        <lane id=":E1_0_0" index="0" speed="13.89" length="15.98" shape="468.68,101.60,56.33 452.69,101.60,56.33"/>
    </edge>
    <edge id=":E1_1" function="internal">
        <lane id=":E1_1_0" index="0" speed="11.81" length="5.54" shape="468.68,101.60,56.33 465.46,101.04,56.33 463.44,100.00,56.33"/>
    </edge>
    <edge id=":E1_2" function="internal">
        <lane id=":E1_2_0" index="0" speed="3.65" length="2.34" shape="468.68,101.60,56.33 467.48,100.80,56.33 467.08,100.00,56.33"/>
    </edge>
    <edge id=":E1_9" function="internal">
        <lane id=":E1_9_0" index="0" speed="11.81" length="10.86" shape="463.44,100.00,56.33 462.20,99.36,56.33 458.91,96.56,56.33 455.58,92.64,56.33"/>
    </edge>
    <edge id=":E1_10" function="internal">
        <lane id=":E1_10_0" index="0" speed="3.65" length="2.34" shape="467.08,100.00,56.33 467.48,99.20,56.33 468.68,98.40,56.33"/>
    </edge>
    <edge id=":E1_3" function="internal">
        <lane id=":E1_3_0" index="0" speed="10.72" length="13.44" shape="458.15,90.72,56.33 460.95,94.08,56.33 463.64,96.48,56.33 466.22,97.92,56.33 468.68,98.40,56.33"/>
    </edge>
    <edge id=":E1_4" function="internal">
        <lane id=":E1_4_0" index="0" speed="7.38" length="17.74" shape="458.15,90.72,56.33 460.85,95.48,56.33 460.84,98.88,56.33 458.12,100.92,56.33 452.69,101.60,56.33"/>
    </edge>
    <edge id=":E1_5" function="internal">
        <lane id=":E1_5_0" index="0" speed="3.65" length="4.67" shape="458.15,90.72,56.33 458.22,92.16,56.33 457.82,92.96,56.33 456.94,93.12,56.33 455.58,92.64,56.33"/>
    </edge>
    <edge id=":E1_6" function="internal">
        <lane id=":E1_6_0" index="0" speed="5.56" length="9.40" shape="452.69,98.40,56.33 455.57,98.04,56.33 457.01,96.96,56.33 457.01,95.16,56.33 455.58,92.64,56.33"/>
    </edge>
    <edge id=":E1_7" function="internal">
        <lane id=":E1_7_0" index="0" speed="13.89" length="15.98" shape="452.69,98.40,56.33 468.68,98.40,56.33"/>
    </edge>
    <edge id=":E1_8" function="internal">
        <lane id=":E1_8_0" index="0" speed="3.65" length="2.34" shape="452.69,98.40,56.33 453.89,99.20,56.33 454.29,100.00,56.33"/>
    </edge>
    <edge id=":E1_11" function="internal">
        <lane id=":E1_11_0" index="0" speed="3.65" length="2.34" shape="454.29,100.00,56.33 453.89,100.80,56.33 452.69,101.60,56.33"/>
    </edge>
    <edge id=":F0_0" function="internal">
        <lane id=":F0_0_0" index="0" speed="8.32" length="11.17" shape="532.23,1.60,62.53 529.83,2.04,62.53 527.73,3.36,62.53 525.94,5.56,62.53 524.46,8.64,62.53"/>
    </edge>
    <edge id=":F0_1" function="internal">
        <lane id=":F0_1_0" index="0" speed="13.89" length="14.84" shape="532.23,1.60,62.53 517.39,1.60,62.53"/>
    </edge>
    <edge id=":F0_2" function="internal">
        <lane id=":F0_2_0" index="0" speed="3.65" length="2.34" shape="532.23,1.60,62.53 531.03,0.80,62.53 530.63,0.00,62.53"/>
    </edge>
    <edge id=":F0_9" function="internal">
        <lane id=":F0_9_0" index="0" speed="3.65" length="2.34" shape="530.63,0.00,62.53 531.03,-0.80,62.53 532.23,-1.60,62.53"/>
    </edge>
    <edge id=":F0_3" function="internal">
        <lane id=":F0_3_0" index="0" speed="13.89" length="14.84" shape="517.39,-1.60,62.53 532.23,-1.60,62.53"/>
    </edge>
    <edge id=":F0_4" function="internal">
        <lane id=":F0_4_0" index="0" speed="7.51" length="6.25" shape="517.39,-1.60,62.53 521.93,-0.96,62.53 523.28,-0.00,62.53"/>
    </edge>
    <edge id=":F0_5" function="internal">
        <lane id=":F0_5_0" index="0" speed="3.65" length="2.34" shape="517.39,-1.60,62.53 518.59,-0.80,62.53 518.99,0.00,62.53"/>
    </edge>
    <edge id=":F0_10" function="internal">
        <lane id=":F0_10_0" index="0" speed="7.51" length="9.56" shape="523.28,-0.00,62.53 524.63,0.96,62.53 525.47,4.16,62.53 524.46,8.64,62.53"/>
    </edge>
    <edge id=":F0_11" function="internal">
        <lane id=":F0_11_0" index="0" speed="3.65" length="2.34" shape="518.99,0.00,62.53 518.59,0.80,62.53 517.39,1.60,62.53"/>
    </edge>
    <edge id=":F0_6" function="internal">
        <lane id=":F0_6_0" index="0" speed="5.87" length="9.12" shape="521.47,7.51,62.53 522.05,4.92,62.53 521.56,3.08,62.53 520.01,1.97,62.53 517.39,1.60,62.53"/>
    </edge>
    <edge id=":F0_7" function="internal">
        <lane id=":F0_7_0" index="0" speed="9.58" length="15.05" shape="521.47,7.51,62.53 523.43,3.52,62.53 525.88,0.68,62.53 528.81,-1.03,62.53 532.23,-1.60,62.53"/>
    </edge>
    <edge id=":F0_8" function="internal">
        <lane id=":F0_8_0" index="0" speed="3.65" length="4.67" shape="521.47,7.51,62.53 522.64,6.67,62.53 523.53,6.58,62.53 524.14,7.24,62.53 524.46,8.64,62.53"/>
    </edge>
    <edge id=":F1_0" function="internal">
        <lane id=":F1_0_0" index="0" speed="13.89" length="14.84" shape="496.79,101.60,136.60 481.94,101.60,136.60"/>
    </edge>
    <edge id=":F1_1" function="internal">
        <lane id=":F1_1_0" index="0" speed="7.51" length="6.25" shape="496.79,101.60,136.60 492.24,100.96,136.60 490.89,100.00,136.60"/>
    </edge>
    <edge id=":F1_2" function="internal">
        <lane id=":F1_2_0" index="0" speed="3.65" length="2.34" shape="496.79,101.60,136.60 495.59,100.80,136.60 495.19,100.00,136.60"/>
    </edge>
    <edge id=":F1_9" function="internal">
        <lane id=":F1_9_0" index="0" speed="7.51" length="9.56" shape="490.89,100.00,136.60 489.55,99.04,136.60 488.70,95.84,136.60 489.72,91.36,136.60"/>
    </edge>
    <edge id=":F1_10" function="internal">
        <lane id=":F1_10_0" index="0" speed="3.65" length="2.34" shape="495.19,100.00,136.60 495.59,99.20,136.60 496.79,98.40,136.60"/>
    </edge>
    <edge id=":F1_3" function="internal">
        <lane id=":F1_3_0" index="0" speed="5.87" length="9.12" shape="492.71,92.49,136.60 492.12,95.08,136.60 492.61,96.92,136.60 494.16,98.03,136.60 496.79,98.40,136.60"/>
    </edge>
    <edge id=":F1_4" function="internal">
        <lane id=":F1_4_0" index="0" speed="9.58" length="15.05" shape="492.71,92.49,136.60 490.74,96.48,136.60 488.29,99.32,136.60 485.36,101.03,136.60 481.94,101.60,136.60"/>
    </edge>
    <edge id=":F1_5" function="internal">
        <lane id=":F1_5_0" index="0" speed="3.65" length="4.67" shape="492.71,92.49,136.60 491.54,93.33,136.60 490.65,93.42,136.60 490.04,92.76,136.60 489.72,91.36,136.60"/>
    </edge>
    <edge id=":F1_6" function="internal">
        <lane id=":F1_6_0" index="0" speed="8.32" length="11.17" shape="481.94,98.40,136.60 484.34,97.96,136.60 486.44,96.64,136.60 488.23,94.44,136.60 489.72,91.36,136.60"/>
    </edge>
    <edge id=":F1_7" function="internal">
        <lane id=":F1_7_0" index="0" speed="13.89" length="14.84" shape="481.94,98.40,136.60 496.79,98.40,136.60"/>
    </edge>
    <edge id=":F1_8" function="internal">
        <lane id=":F1_8_0" index="0" speed="3.65" length="2.34" shape="481.94,98.40,136.60 483.14,99.20,136.60 483.54,100.00,136.60"/>
    </edge>
    <edge id=":F1_11" function="internal">
        <lane id=":F1_11_0" index="0" speed="3.65" length="2.34" shape="483.54,100.00,136.60 483.14,100.80,136.60 481.94,101.60,136.60"/>
    </edge>
    <edge id=":G0_0" function="internal">
        <lane id=":G0_0_0" index="0" speed="9.70" length="12.53" shape="579.80,9.10,-60.50 577.53,5.82,-60.50 575.21,3.47,-60.50 572.83,2.07,-60.50 570.40,1.60,-60.50"/>
    </edge>
    <edge id=":G0_1" function="internal">
        <lane id=":G0_1_0" index="0" speed="7.40" length="16.92" shape="579.80,9.10,-60.50 577.78,4.42,-60.50 578.11,1.07,-60.50 580.81,-0.93,-60.50 585.86,-1.60,-60.50"/>
    </edge>
    <edge id=":G0_2" function="internal">
        <lane id=":G0_2_0" index="0" speed="3.65" length="4.67" shape="579.80,9.10,-60.50 579.87,7.66,-60.50 580.35,6.90,-60.50 581.25,6.84,-60.50 582.55,7.45,-60.50"/>
    </edge>
    <edge id=":G0_3" function="internal">
        <lane id=":G0_3_0" index="0" speed="5.65" length="9.26" shape="585.86,1.60,-60.50 583.10,1.97,-60.50 581.62,3.06,-60.50 581.44,4.89,-60.50 582.55,7.45,-60.50"/>
    </edge>
    <edge id=":G0_4" function="internal">
        <lane id=":G0_4_0" index="0" speed="13.89" length="15.46" shape="585.86,1.60,-60.50 570.40,1.60,-60.50"/>
    </edge>
    <edge id=":G0_5" function="internal">
        <lane id=":G0_5_0" index="0" speed="3.65" length="2.34" shape="585.86,1.60,-60.50 584.66,0.80,-60.50 584.26,0.00,-60.50"/>
    </edge>
    <edge id=":G0_9" function="internal">
        <lane id=":G0_9_0" index="0" speed="3.65" length="2.34" shape="584.26,0.00,-60.50 584.66,-0.80,-60.50 585.86,-1.60,-60.50"/>
    </edge>
    <edge id=":G0_6" function="internal">
        <lane id=":G0_6_0" index="0" speed="13.89" length="15.46" shape="570.40,-1.60,-60.50 585.86,-1.60,-60.50"/>
    </edge>
    <edge id=":G0_7" function="internal">
        <lane id=":G0_7_0" index="0" speed="10.84" length="5.49" shape="570.40,-1.60,-60.50 573.68,-1.03,-60.50 575.58,0.00,-60.50"/>
    </edge>
    <edge id=":G0_8" function="internal">
        <lane id=":G0_8_0" index="0" speed="3.65" length="2.34" shape="570.40,-1.60,-60.50 571.60,-0.80,-60.50 572.00,0.00,-60.50"/>
    </edge>
    <edge id=":G0_10" function="internal">
        <lane id=":G0_10_0" index="0" speed="10.84" length="10.33" shape="575.58,0.00,-60.50 576.80,0.66,-60.50 579.75,3.49,-60.50 582.55,7.45,-60.50"/>
    </edge>
    <edge id=":G0_11" function="internal">
        <lane id=":G0_11_0" index="0" speed="3.65" length="2.34" shape="572.00,0.00,-60.50 571.60,0.80,-60.50 570.40,1.60,-60.50"/>
    </edge>
    <edge id=":G1_0" function="internal">
        <lane id=":G1_0_0" index="0" speed="13.89" length="15.46" shape="641.99,101.60,-35.32 626.53,101.60,-35.32"/>
    </edge>
    <edge id=":G1_1" function="internal">
        <lane id=":G1_1_0" index="0" speed="10.84" length="5.49" shape="641.99,101.60,-35.32 638.71,101.03,-35.32 636.81,100.00,-35.32"/>
    </edge>
    <edge id=":G1_2" function="internal">
        <lane id=":G1_2_0" index="0" speed="3.65" length="2.34" shape="641.99,101.60,-35.32 640.79,100.80,-35.32 640.39,100.00,-35.32"/>
    </edge>
    <edge id=":G1_9" function="internal">
        <lane id=":G1_9_0" index="0" speed="10.84" length="10.33" shape="636.81,100.00,-35.32 635.60,99.34,-35.32 632.64,96.51,-35.32 629.84,92.55,-35.32"/>
    </edge>
    <edge id=":G1_10" function="internal">
        <lane id=":G1_10_0" index="0" speed="3.65" length="2.34" shape="640.39,100.00,-35.32 640.79,99.20,-35.32 641.99,98.40,-35.32"/>
    </edge>
    <edge id=":G1_3" function="internal">
        <lane id=":G1_3_0" index="0" speed="9.70" length="12.53" shape="632.59,90.90,-35.32 634.86,94.18,-35.32 637.19,96.53,-35.32 639.56,97.93,-35.32 641.99,98.40,-35.32"/>
    </edge>
    <edge id=":G1_4" function="internal">
        <lane id=":G1_4_0" index="0" speed="7.40" length="16.92" shape="632.59,90.90,-35.32 634.62,95.58,-35.32 634.28,98.93,-35.32 631.59,100.93,-35.32 626.53,101.60,-35.32"/>
    </edge>
    <edge id=":G1_5" function="internal">
        <lane id=":G1_5_0" index="0" speed="3.65" length="4.67" shape="632.59,90.90,-35.32 632.52,92.34,-35.32 632.04,93.10,-35.32 631.15,93.16,-35.32 629.84,92.55,-35.32"/>
    </edge>
    <edge id=":G1_6" function="internal">
        <lane id=":G1_6_0" index="0" speed="5.65" length="9.26" shape="626.53,98.40,-35.32 629.30,98.03,-35.32 630.77,96.94,-35.32 630.95,95.11,-35.32 629.84,92.55,-35.32"/>
    </edge>
    <edge id=":G1_7" function="internal">