<?xml version="1.0" encoding="UTF-8"?>

<!-- generated on 07/22/20 21:49:10 by Eclipse SUMO netgenerate Version 1.5.0
<configuration xmlns:xsi="http://www.w3.org/2001/XMLSchema-instance" xsi:noNamespaceSchemaLocation="http://sumo.dlr.de/xsd/netgenerateConfiguration.xsd">

    <grid_network>
        <grid value="true"/>
        <grid.x-number value="20"/>
        <grid.y-number value="2"/>
    </grid_network>

    <output>
        <output-file value="1.net.xml"/>
    </output>

    <processing>
        <perturb-x value="40"/>
        <perturb-z value="100"/>
    </processing>

    <random_number>
        <seed value="54643232"/>
    </random_number>

</configuration>
-->

<net version="1.3" junctionCornerDetail="5" limitTurnSpeed="5.50" xmlns:xsi="http://www.w3.org/2001/XMLSchema-instance" xsi:noNamespaceSchemaLocation="http://sumo.dlr.de/xsd/net_file.xsd">

    <location netOffset="-41.67,0.00" convBoundary="0.00,0.00,1863.06,100.00" origBoundary="41.67,0.00,1904.73,100.00" projParameter="!"/>

    <edge id=":A0_0" function="internal">
        <lane id=":A0_0_0" index="0" speed="6.07" length="11.55" shape="-0.97,3.98,-40.06 -1.02,1.54,-37.93 -0.24,-0.21,-36.26 1.35,-1.25,-34.59 3.77,-1.60,-32.45"/>
    </edge>
    <edge id=":A0_1" function="internal">
        <lane id=":A0_1_0" index="0" speed="3.90" length="8.09" shape="3.77,1.60,-32.51 2.96,1.72,-34.63 2.43,2.06,-36.29 2.17,2.65,-37.94 2.19,3.46,-40.06"/>
    </edge>
    <edge id=":A1_0" function="internal">
        <lane id=":A1_0_0" index="0" speed="6.11" length="30.57" shape="19.11,101.60,-214.16 17.28,101.35,-222.16 15.88,100.59,-229.06 14.91,99.34,-235.96 14.37,97.58,-243.96"/>
    </edge>
    <edge id=":A1_1" function="internal">
        <lane id=":A1_1_0" index="0" speed="3.92" length="22.58" shape="17.53,97.06,-243.96 17.71,97.65,-237.92 18.03,98.06,-232.72 18.50,98.32,-227.52 19.11,98.40,-221.49"/>
    </edge>
    <edge id=":B0_0" function="internal">
        <lane id=":B0_0_0" index="0" speed="8.01" length="10.84" shape="85.77,1.60,-42.28 83.38,2.03,-42.28 81.35,3.32,-42.28 79.68,5.47,-42.28 78.39,8.48,-42.28"/>
    </edge>
    <edge id=":B0_1" function="internal">
        <lane id=":B0_1_0" index="0" speed="13.89" length="14.73" shape="85.77,1.60,-42.28 71.05,1.60,-42.28"/>
    </edge>
    <edge id=":B0_2" function="internal">
        <lane id=":B0_2_0" index="0" speed="3.65" length="2.34" shape="85.77,1.60,-42.28 84.57,0.80,-42.28 84.17,0.00,-42.28"/>
    </edge>
    <edge id=":B0_9" function="internal">
        <lane id=":B0_9_0" index="0" speed="3.65" length="2.34" shape="84.17,0.00,-42.28 84.57,-0.80,-42.28 85.77,-1.60,-42.28"/>
    </edge>
    <edge id=":B0_3" function="internal">
        <lane id=":B0_3_0" index="0" speed="13.89" length="14.73" shape="71.05,-1.60,-42.28 85.77,-1.60,-42.28"/>
    </edge>
    <edge id=":B0_4" function="internal">
        <lane id=":B0_4_0" index="0" speed="7.56" length="6.17" shape="71.05,-1.60,-42.28 75.48,-0.97,-42.28 76.87,-0.00,-42.28"/>
    </edge>
    <edge id=":B0_5" function="internal">
        <lane id=":B0_5_0" index="0" speed="3.65" length="2.34" shape="71.05,-1.60,-42.28 72.25,-0.80,-42.28 72.65,0.00,-42.28"/>
    </edge>
    <edge id=":B0_10" function="internal">
        <lane id=":B0_10_0" index="0" speed="7.56" length="9.38" shape="76.87,-0.00,-42.28 78.18,0.92,-42.28 79.15,4.07,-42.28 78.39,8.48,-42.28"/>
    </edge>
    <edge id=":B0_11" function="internal">
        <lane id=":B0_11_0" index="0" speed="3.65" length="2.34" shape="72.65,0.00,-42.28 72.25,0.80,-42.28 71.05,1.60,-42.28"/>
    </edge>
    <edge id=":B0_6" function="internal">
        <lane id=":B0_6_0" index="0" speed="5.94" length="9.09" shape="75.34,7.50,-42.28 75.79,4.92,-42.28 75.22,3.07,-42.28 73.64,1.97,-42.28 71.05,1.60,-42.28"/>
    </edge>
    <edge id=":B0_7" function="internal">
        <lane id=":B0_7_0" index="0" speed="9.30" length="14.89" shape="75.34,7.50,-42.28 77.10,3.52,-42.28 79.42,0.67,-42.28 82.31,-1.03,-42.28 85.77,-1.60,-42.28"/>
    </edge>
    <edge id=":B0_8" function="internal">
        <lane id=":B0_8_0" index="0" speed="3.65" length="4.67" shape="75.34,7.50,-42.28 76.47,6.60,-42.28 77.36,6.47,-42.28 78.00,7.09,-42.28 78.39,8.48,-42.28"/>
    </edge>
    <edge id=":B1_0" function="internal">
        <lane id=":B1_0_0" index="0" speed="13.89" length="14.73" shape="55.56,101.60,70.66 40.83,101.60,70.66"/>
    </edge>
    <edge id=":B1_1" function="internal">
        <lane id=":B1_1_0" index="0" speed="7.56" length="6.17" shape="55.56,101.60,70.66 51.13,100.97,70.66 49.74,100.00,70.66"/>
    </edge>
    <edge id=":B1_2" function="internal">
        <lane id=":B1_2_0" index="0" speed="3.65" length="2.34" shape="55.56,101.60,70.66 54.36,100.80,70.66 53.96,100.00,70.66"/>
    </edge>
    <edge id=":B1_9" function="internal">
        <lane id=":B1_9_0" index="0" speed="7.56" length="9.38" shape="49.74,100.00,70.66 48.43,99.08,70.66 47.46,95.93,70.66 48.22,91.52,70.66"/>
    </edge>
    <edge id=":B1_10" function="internal">
        <lane id=":B1_10_0" index="0" speed="3.65" length="2.34" shape="53.96,100.00,70.66 54.36,99.20,70.66 55.56,98.40,70.66"/>
    </edge>
    <edge id=":B1_3" function="internal">
        <lane id=":B1_3_0" index="0" speed="5.94" length="9.09" shape="51.26,92.50,70.66 50.82,95.08,70.66 51.39,96.93,70.66 52.97,98.03,70.66 55.56,98.40,70.66"/>
    </edge>
    <edge id=":B1_4" function="internal">
        <lane id=":B1_4_0" index="0" speed="9.30" length="14.89" shape="51.26,92.50,70.66 49.51,96.48,70.66 47.19,99.33,70.66 44.30,101.03,70.66 40.83,101.60,70.66"/>
    </edge>
    <edge id=":B1_5" function="internal">
        <lane id=":B1_5_0" index="0" speed="3.65" length="4.67" shape="51.26,92.50,70.66 50.13,93.40,70.66 49.25,93.53,70.66 48.61,92.91,70.66 48.22,91.52,70.66"/>
    </edge>
    <edge id=":B1_6" function="internal">
        <lane id=":B1_6_0" index="0" speed="8.01" length="10.84" shape="40.83,98.40,70.66 43.23,97.97,70.66 45.26,96.68,70.66 46.92,94.53,70.66 48.22,91.52,70.66"/>
    </edge>
    <edge id=":B1_7" function="internal">
        <lane id=":B1_7_0" index="0" speed="13.89" length="14.73" shape="40.83,98.40,70.66 55.56,98.40,70.66"/>
    </edge>
    <edge id=":B1_8" function="internal">
        <lane id=":B1_8_0" index="0" speed="3.65" length="2.34" shape="40.83,98.40,70.66 42.03,99.20,70.66 42.43,100.00,70.66"/>
    </edge>
    <edge id=":B1_11" function="internal">
        <lane id=":B1_11_0" index="0" speed="3.65" length="2.34" shape="42.43,100.00,70.66 42.03,100.80,70.66 40.83,101.60,70.66"/>
    </edge>
    <edge id=":C0_0" function="internal">
        <lane id=":C0_0_0" index="0" speed="6.59" length="7.23" shape="191.91,5.59,17.84 191.13,3.84,17.84 189.97,2.60,17.84 188.44,1.85,17.84 186.55,1.60,17.84"/>
    </edge>
    <edge id=":C0_1" function="internal">
        <lane id=":C0_1_0" index="0" speed="6.59" length="7.23" shape="191.91,5.59,17.84 191.13,3.84,17.84 189.97,2.60,17.84 188.44,1.85,17.84 186.55,1.60,17.84"/>
    </edge>
    <edge id=":C0_2" function="internal">
        <lane id=":C0_2_0" index="0" speed="3.65" length="2.10" shape="191.91,5.59,17.84 192.33,4.21,17.84 192.81,3.76,17.84"/>
    </edge>
    <edge id=":C0_9" function="internal">
        <lane id=":C0_9_0" index="0" speed="3.65" length="2.57" shape="192.81,3.76,17.84 192.98,3.60,17.84 193.86,3.75,17.84 194.98,4.67,17.84"/>
    </edge>
    <edge id=":C0_3" function="internal">
        <lane id=":C0_3_0" index="0" speed="8.11" length="11.36" shape="186.55,-1.60,17.84 189.53,-1.21,17.84 191.93,-0.03,17.84 193.74,1.93,17.84 194.98,4.67,17.84"/>
    </edge>
    <edge id=":C0_4" function="internal">
        <lane id=":C0_4_0" index="0" speed="3.24" length="3.20" shape="186.55,-1.60,17.84 186.55,1.60,17.84"/>
    </edge>
    <edge id=":C0_5" function="internal">
        <lane id=":C0_5_0" index="0" speed="3.65" length="2.54" shape="186.55,-1.60,17.84 187.75,-0.80,17.84 188.15,0.00,17.84 188.05,0.18,17.84"/>
    </edge>
    <edge id=":C0_10" function="internal">
        <lane id=":C0_10_0" index="0" speed="3.65" length="2.13" shape="188.05,0.18,17.84 187.75,0.80,17.84 186.55,1.60,17.84"/>
    </edge>
    <edge id=":C0_6" function="internal">
        <lane id=":C0_6_0" index="0" speed="8.11" length="11.36" shape="186.55,-1.60,17.84 189.53,-1.21,17.84 191.93,-0.03,17.84 193.74,1.93,17.84 194.98,4.67,17.84"/>
    </edge>
    <edge id=":C0_7" function="internal">
        <lane id=":C0_7_0" index="0" speed="3.24" length="3.20" shape="186.55,-1.60,17.84 186.55,1.60,17.84"/>
    </edge>
    <edge id=":C0_8" function="internal">
        <lane id=":C0_8_0" index="0" speed="3.65" length="4.67" shape="186.55,-1.60,17.84 187.75,-0.80,17.84 188.15,0.00,17.84 187.75,0.80,17.84 186.55,1.60,17.84"/>
    </edge>
    <edge id=":C1_0" function="internal">
        <lane id=":C1_0_0" index="0" speed="13.89" length="14.69" shape="228.30,101.60,63.39 213.62,101.60,63.75"/>
    </edge>
    <edge id=":C1_1" function="internal">
        <lane id=":C1_1_0" index="0" speed="9.19" length="5.55" shape="228.30,101.60,63.39 224.82,101.03,63.39 223.08,100.00,63.39"/>
    </edge>
    <edge id=":C1_2" function="internal">
        <lane id=":C1_2_0" index="0" speed="3.65" length="2.34" shape="228.30,101.60,63.39 227.10,100.80,63.39 226.70,100.00,63.39"/>
    </edge>
    <edge id=":C1_9" function="internal">
        <lane id=":C1_9_0" index="0" speed="9.19" length="9.27" shape="223.08,100.00,63.39 221.94,99.33,63.39 219.67,96.49,63.39 218.00,92.51,63.39"/>
    </edge>
    <edge id=":C1_10" function="internal">
        <lane id=":C1_10_0" index="0" speed="3.65" length="2.34" shape="226.70,100.00,63.39 227.10,99.20,63.39 228.30,98.40,63.39"/>
    </edge>
    <edge id=":C1_3" function="internal">
        <lane id=":C1_3_0" index="0" speed="7.89" length="10.70" shape="221.07,91.59,63.39 222.29,94.57,63.39 223.90,96.70,63.39 225.90,97.97,63.39 228.30,98.40,63.39"/>
    </edge>
    <edge id=":C1_4" function="internal">
        <lane id=":C1_4_0" index="0" speed="7.58" length="15.44" shape="221.07,91.59,63.39 221.73,95.97,63.50 220.71,99.10,63.57 218.00,100.97,63.65 213.62,101.60,63.75"/>
    </edge>
    <edge id=":C1_5" function="internal">
        <lane id=":C1_5_0" index="0" speed="3.65" length="4.67" shape="221.07,91.59,63.39 220.65,92.97,63.39 219.99,93.58,63.39 219.11,93.43,63.39 218.00,92.51,63.39"/>
    </edge>
    <edge id=":C1_6" function="internal">
        <lane id=":C1_6_0" index="0" speed="5.97" length="9.09" shape="213.62,98.40,63.76 216.20,98.03,63.65 217.79,96.93,63.58 218.39,95.09,63.50 218.00,92.51,63.39"/>
    </edge>
    <edge id=":C1_7" function="internal">
        <lane id=":C1_7_0" index="0" speed="13.89" length="14.69" shape="213.62,98.40,63.76 228.30,98.40,63.39"/>
    </edge>
    <edge id=":C1_8" function="internal">
        <lane id=":C1_8_0" index="0" speed="3.65" length="2.34" shape="213.62,98.40,63.76 214.82,99.20,63.75 215.22,100.00,63.75"/>
    </edge>
    <edge id=":C1_11" function="internal">
        <lane id=":C1_11_0" index="0" speed="3.65" length="2.34" shape="215.22,100.00,63.75 214.82,100.80,63.75 213.62,101.60,63.75"/>
    </edge>
    <edge id=":D0_0" function="internal">
        <lane id=":D0_0_0" index="0" speed="7.45" length="19.72" shape="165.99,9.44,0.40 161.86,4.61,0.40 161.22,1.16,0.40 164.05,-0.91,0.40 170.36,-1.60,0.40"/>
    </edge>
    <edge id=":D0_1" function="internal">
        <lane id=":D0_1_0" index="0" speed="6.29" length="13.61" shape="165.99,9.44,0.40 164.90,6.57,0.40 165.61,2.90,0.40 167.61,-0.26,0.40 170.36,-1.60,0.40"/>
    </edge>
    <edge id=":D0_2" function="internal">
        <lane id=":D0_2_0" index="0" speed="3.65" length="2.51" shape="165.99,9.44,0.40 165.66,8.03,0.40 165.92,7.18,0.40 166.08,7.11,0.40"/>
    </edge>
    <edge id=":D0_9" function="internal">
        <lane id=":D0_9_0" index="0" speed="3.65" length="2.16" shape="166.08,7.11,0.40 166.76,6.87,0.40 168.18,7.11,0.40"/>
    </edge>
    <edge id=":D0_3" function="internal">
        <lane id=":D0_3_0" index="0" speed="5.46" length="9.84" shape="170.36,1.60,0.40 167.21,1.94,0.40 165.80,2.98,0.40 166.12,4.70,0.40 168.18,7.11,0.40"/>
    </edge>
    <edge id=":D0_4" function="internal">
        <lane id=":D0_4_0" index="0" speed="3.24" length="1.59" shape="170.36,1.60,0.40 170.36,0.01,0.40"/>
    </edge>
    <edge id=":D0_5" function="internal">
        <lane id=":D0_5_0" index="0" speed="3.65" length="2.14" shape="170.36,1.60,0.40 169.16,0.80,0.40 168.85,0.17,0.40"/>
    </edge>
    <edge id=":D0_10" function="internal">
        <lane id=":D0_10_0" index="0" speed="3.24" length="1.61" shape="170.36,0.01,0.40 170.36,-1.60,0.40"/>
    </edge>
    <edge id=":D0_11" function="internal">
        <lane id=":D0_11_0" index="0" speed="3.65" length="2.53" shape="168.85,0.17,0.40 168.76,0.00,0.40 169.16,-0.80,0.40 170.36,-1.60,0.40"/>
    </edge>
    <edge id=":D0_6" function="internal">
        <lane id=":D0_6_0" index="0" speed="5.46" length="9.84" shape="170.36,1.60,0.40 167.21,1.94,0.40 165.80,2.98,0.40 166.12,4.70,0.40 168.18,7.11,0.40"/>
    </edge>
    <edge id=":D0_7" function="internal">
        <lane id=":D0_7_0" index="0" speed="3.24" length="3.20" shape="170.36,1.60,0.40 170.36,-1.60,0.40"/>
    </edge>
    <edge id=":D0_8" function="internal">
        <lane id=":D0_8_0" index="0" speed="3.65" length="4.67" shape="170.36,1.60,0.40 169.16,0.80,0.40 168.76,0.00,0.40 169.16,-0.80,0.40 170.36,-1.60,0.40"/>
    </edge>
    <edge id=":D1_0" function="internal">
        <lane id=":D1_0_0" index="0" speed="13.89" length="17.34" shape="269.83,101.60,-76.34 252.49,101.60,-76.34"/>
    </edge>
    <edge id=":D1_1" function="internal">
        <lane id=":D1_1_0" index="0" speed="13.89" length="5.60" shape="269.83,101.60,-76.34 265.87,100.72,-76.34 264.51,100.00,-76.34"/>
    </edge>
    <edge id=":D1_2" function="internal">
        <lane id=":D1_2_0" index="0" speed="3.65" length="2.34" shape="269.83,101.60,-76.34 268.63,100.80,-76.34 268.23,100.00,-76.34"/>
    </edge>
    <edge id=":D1_9" function="internal">
        <lane id=":D1_9_0" index="0" speed="13.89" length="12.18" shape="264.51,100.00,-76.34 261.75,98.53,-76.34 257.88,95.70,-76.34 254.68,92.89,-76.34"/>
    </edge>
    <edge id=":D1_10" function="internal">
        <lane id=":D1_10_0" index="0" speed="3.65" length="2.34" shape="268.23,100.00,-76.34 268.63,99.20,-76.34 269.83,98.40,-76.34"/>
    </edge>
    <edge id=":D1_3" function="internal">
        <lane id=":D1_3_0" index="0" speed="13.31" length="15.49" shape="256.87,90.56,-76.34 259.73,93.23,-76.34 262.84,95.77,-76.34 266.21,97.66,-76.34 269.83,98.40,-76.34"/>
    </edge>
    <edge id=":D1_4" function="internal">
        <lane id=":D1_4_0" index="0" speed="7.45" length="19.72" shape="256.87,90.56,-76.34 261.00,95.39,-76.34 261.64,98.84,-76.34 258.81,100.91,-76.34 252.49,101.60,-76.34"/>
    </edge>
    <edge id=":D1_5" function="internal">
        <lane id=":D1_5_0" index="0" speed="3.65" length="4.67" shape="256.87,90.56,-76.34 257.20,91.97,-76.34 256.94,92.82,-76.34 256.10,93.13,-76.34 254.68,92.89,-76.34"/>
    </edge>
    <edge id=":D1_6" function="internal">
        <lane id=":D1_6_0" index="0" speed="5.46" length="9.84" shape="252.49,98.40,-76.34 255.64,98.06,-76.34 257.06,97.02,-76.34 256.74,95.30,-76.34 254.68,92.89,-76.34"/>
    </edge>
    <edge id=":D1_7" function="internal">
        <lane id=":D1_7_0" index="0" speed="13.89" length="17.34" shape="252.49,98.40,-76.34 269.83,98.40,-76.34"/>
    </edge>
    <edge id=":D1_8" function="internal">
        <lane id=":D1_8_0" index="0" speed="3.65" length="2.34" shape="252.49,98.40,-76.34 253.69,99.20,-76.34 254.09,100.00,-76.34"/>
    </edge>
    <edge id=":D1_11" function="internal">
        <lane id=":D1_11_0" index="0" speed="3.65" length="2.34" shape="254.09,100.00,-76.34 253.69,100.80,-76.34 252.49,101.60,-76.34"/>
    </edge>
    <edge id=":E0_0" function="internal">
        <lane id=":E0_0_0" index="0" speed="7.38" length="10.12" shape="401.93,1.60,-96.70 399.53,2.00,-96.70 397.63,3.22,-96.70 396.23,5.23,-96.70 395.33,8.06,-96.70"/>
    </edge>
    <edge id=":E0_1" function="internal">
        <lane id=":E0_1_0" index="0" speed="13.89" length="14.53" shape="401.93,1.60,-96.70 387.41,1.60,-96.70"/>
    </edge>
    <edge id=":E0_2" function="internal">
        <lane id=":E0_2_0" index="0" speed="3.65" length="2.34" shape="401.93,1.60,-96.70 400.73,0.80,-96.70 400.33,0.00,-96.70"/>
    </edge>
    <edge id=":E0_9" function="internal">
        <lane id=":E0_9_0" index="0" speed="3.65" length="2.34" shape="400.33,0.00,-96.70 400.73,-0.80,-96.70 401.93,-1.60,-96.70"/>
    </edge>
    <edge id=":E0_3" function="internal">
        <lane id=":E0_3_0" index="0" speed="13.89" length="14.53" shape="387.41,-1.60,-96.70 401.93,-1.60,-96.70"/>
    </edge>
    <edge id=":E0_4" function="internal">
        <lane id=":E0_4_0" index="0" speed="7.69" length="6.03" shape="387.41,-1.60,-96.70 391.60,-1.00,-96.70 393.09,0.00,-96.70"/>
    </edge>
    <edge id=":E0_5" function="internal">
        <lane id=":E0_5_0" index="0" speed="3.65" length="2.34" shape="387.41,-1.60,-96.70 388.61,-0.80,-96.70 389.01,0.00,-96.70"/>
    </edge>
    <edge id=":E0_10" function="internal">
        <lane id=":E0_10_0" index="0" speed="7.69" length="8.97" shape="393.09,0.00,-96.70 394.31,0.82,-96.70 395.56,3.83,-96.70 395.33,8.06,-96.70"/>
    </edge>
    <edge id=":E0_11" function="internal">
        <lane id=":E0_11_0" index="0" speed="3.65" length="2.34" shape="389.01,0.00,-96.70 388.61,0.80,-96.70 387.41,1.60,-96.70"/>
    </edge>
    <edge id=":E0_6" function="internal">
        <lane id=":E0_6_0" index="0" speed="6.12" length="9.06" shape="392.19,7.44,-96.70 392.33,4.88,-96.70 391.58,3.06,-96.70 389.94,1.96,-96.70 387.41,1.60,-96.70"/>
    </edge>
    <edge id=":E0_7" function="internal">
        <lane id=":E0_7_0" index="0" speed="8.74" length="14.56" shape="392.19,7.44,-96.70 393.48,3.48,-96.70 395.53,0.66,-96.70 398.35,-1.04,-96.70 401.93,-1.60,-96.70"/>
    </edge>
    <edge id=":E0_8" function="internal">
        <lane id=":E0_8_0" index="0" speed="3.65" length="4.67" shape="392.19,7.44,-96.70 393.21,6.42,-96.70 394.08,6.18,-96.70 394.78,6.73,-96.70 395.33,8.06,-96.70"/>
    </edge>
    <edge id=":E1_0" function="internal">
        <lane id=":E1_0_0" index="0" speed="13.89" length="114.08" shape="382.62,101.60,73.48 368.73,101.60,-39.75"/>
    </edge>
    <edge id=":E1_1" function="internal">
        <lane id=":E1_1_0" index="0" speed="6.97" length="2.00" shape="382.62,101.60,73.48 382.49,101.43,71.49"/>
    </edge>
    <edge id=":E1_2" function="internal">
        <lane id=":E1_2_0" index="0" speed="3.24" length="1.60" shape="382.62,101.60,73.48 382.61,100.00,73.48"/>
    </edge>
    <edge id=":E1_9" function="internal">
        <lane id=":E1_9_0" index="0" speed="6.97" length="111.87" shape="382.49,101.43,71.49 375.34,91.94,-39.75"/>
    </edge>
    <edge id=":E1_10" function="internal">
        <lane id=":E1_10_0" index="0" speed="3.24" length="1.60" shape="382.61,100.00,73.48 382.61,98.40,73.48"/>
    </edge>
    <edge id=":E1_3" function="internal">
        <lane id=":E1_3_0" index="0" speed="5.52" length="113.45" shape="378.47,92.56,-39.75 382.61,98.40,73.48"/>
    </edge>
    <edge id=":E1_4" function="internal">
        <lane id=":E1_4_0" index="0" speed="8.74" length="14.56" shape="378.47,92.56,-39.75 377.19,96.52,-39.75 375.14,99.34,-39.75 372.32,101.04,-39.75 368.73,101.60,-39.75"/>
    </edge>
    <edge id=":E1_5" function="internal">
        <lane id=":E1_5_0" index="0" speed="3.65" length="4.67" shape="378.47,92.56,-39.75 377.45,93.58,-39.75 376.59,93.82,-39.75 375.89,93.27,-39.75 375.34,91.94,-39.75"/>
    </edge>
    <edge id=":E1_6" function="internal">
        <lane id=":E1_6_0" index="0" speed="7.38" length="10.12" shape="368.73,98.40,-39.75 371.14,98.00,-39.75 373.04,96.78,-39.75 374.44,94.77,-39.75 375.34,91.94,-39.75"/>
    </edge>
    <edge id=":E1_7" function="internal">
        <lane id=":E1_7_0" index="0" speed="13.89" length="114.07" shape="368.73,98.40,-39.75 382.61,98.40,73.48"/>
    </edge>
    <edge id=":E1_8" function="internal">
        <lane id=":E1_8_0" index="0" speed="3.65" length="2.34" shape="368.73,98.40,-39.75 369.93,99.20,-39.75 370.33,100.00,-39.75"/>
    </edge>
    <edge id=":E1_11" function="internal">
        <lane id=":E1_11_0" index="0" speed="3.65" length="2.34" shape="370.33,100.00,-39.75 369.93,100.80,-39.75 368.73,101.60,-39.75"/>
    </edge>
    <edge id=":F0_0" function="internal">
        <lane id=":F0_0_0" index="0" speed="12.30" length="14.69" shape="486.72,1.60,287.87 484.21,2.09,287.87 481.36,3.55,287.87 478.16,5.99,287.87 474.63,9.41,287.87"/>
    </edge>
    <edge id=":F0_1" function="internal">
        <lane id=":F0_1_0" index="0" speed="13.89" length="16.82" shape="486.72,1.60,287.87 469.90,1.60,287.87"/>
    </edge>
    <edge id=":F0_2" function="internal">
        <lane id=":F0_2_0" index="0" speed="3.65" length="2.34" shape="486.72,1.60,287.87 485.52,0.80,287.87 485.12,0.00,287.87"/>
    </edge>
    <edge id=":F0_9" function="internal">
        <lane id=":F0_9_0" index="0" speed="3.65" length="2.34" shape="485.12,0.00,287.87 485.52,-0.80,287.87 486.72,-1.60,287.87"/>
    </edge>
    <edge id=":F0_3" function="internal">
        <lane id=":F0_3_0" index="0" speed="13.89" length="16.82" shape="469.90,-1.60,287.87 486.72,-1.60,287.87"/>
    </edge>
    <edge id=":F0_4" function="internal">
        <lane id=":F0_4_0" index="0" speed="7.41" length="7.55" shape="469.90,-1.60,287.87 475.88,-0.91,287.87 477.11,0.00,287.87"/>
    </edge>
    <edge id=":F0_5" function="internal">
        <lane id=":F0_5_0" index="0" speed="3.65" length="2.34" shape="469.90,-1.60,287.87 471.10,-0.80,287.87 471.50,0.00,287.87"/>
    </edge>
    <edge id=":F0_10" function="internal">
        <lane id=":F0_10_0" index="0" speed="7.41" length="11.42" shape="477.11,0.00,287.87 478.67,1.15,287.87 478.25,4.59,287.87 474.63,9.41,287.87"/>
    </edge>
    <edge id=":F0_11" function="internal">
        <lane id=":F0_11_0" index="0" speed="3.65" length="2.34" shape="471.50,0.00,287.87 471.10,0.80,287.87 469.90,1.60,287.87"/>
    </edge>
    <edge id=":F0_6" function="internal">
        <lane id=":F0_6_0" index="0" speed="5.49" length="9.66" shape="472.31,7.20,287.87 474.15,4.75,287.87 474.37,3.00,287.87 472.95,1.95,287.87 469.90,1.60,287.87"/>
    </edge>
    <edge id=":F0_7" function="internal">
        <lane id=":F0_7_0" index="0" speed="13.31" length="17.28" shape="472.31,7.20,287.87 476.34,3.35,287.87 480.09,0.60,287.87 483.55,-1.05,287.87 486.72,-1.60,287.87"/>
    </edge>
    <edge id=":F0_8" function="internal">
        <lane id=":F0_8_0" index="0" speed="3.65" length="4.67" shape="472.31,7.20,287.87 473.72,6.88,287.87 474.57,7.14,287.87 474.88,7.98,287.87 474.63,9.41,287.87"/>
    </edge>
    <edge id=":F1_0" function="internal">
        <lane id=":F1_0_0" index="0" speed="13.89" length="114.27" shape="397.99,101.60,186.71 382.62,101.60,73.48"/>
    </edge>
    <edge id=":F1_1" function="internal">
        <lane id=":F1_1_0" index="0" speed="7.41" length="7.55" shape="397.99,101.60,186.71 392.00,100.91,186.71 390.77,100.00,186.71"/>
    </edge>
    <edge id=":F1_2" function="internal">
        <lane id=":F1_2_0" index="0" speed="3.65" length="2.34" shape="397.99,101.60,186.71 396.79,100.80,186.71 396.39,100.00,186.71"/>
    </edge>
    <edge id=":F1_9" function="internal">
        <lane id=":F1_9_0" index="0" speed="7.41" length="11.42" shape="390.77,100.00,186.71 389.22,98.85,186.71 389.64,95.41,186.71 393.26,90.59,186.71"/>
    </edge>
    <edge id=":F1_10" function="internal">
        <lane id=":F1_10_0" index="0" speed="3.65" length="2.34" shape="396.39,100.00,186.71 396.79,99.20,186.71 397.99,98.40,186.71"/>
    </edge>
    <edge id=":F1_3" function="internal">
        <lane id=":F1_3_0" index="0" speed="5.49" length="9.66" shape="395.58,92.80,186.71 393.74,95.25,186.71 393.52,97.00,186.71 394.94,98.05,186.71 397.99,98.40,186.71"/>
    </edge>
    <edge id=":F1_4" function="internal">
        <lane id=":F1_4_0" index="0" speed="12.69" length="114.31" shape="395.58,92.80,186.71 382.62,101.60,73.48"/>
    </edge>
    <edge id=":F1_5" function="internal">
        <lane id=":F1_5_0" index="0" speed="3.65" length="4.67" shape="395.58,92.80,186.71 394.17,93.12,186.71 393.32,92.86,186.71 393.01,92.02,186.71 393.26,90.59,186.71"/>
    </edge>
    <edge id=":F1_6" function="internal">
        <lane id=":F1_6_0" index="0" speed="11.68" length="113.99" shape="382.61,98.40,73.48 393.26,90.59,186.71"/>
    </edge>
    <edge id=":F1_7" function="internal">
        <lane id=":F1_7_0" index="0" speed="13.89" length="114.27" shape="382.61,98.40,73.48 397.99,98.40,186.71"/>
    </edge>
    <edge id=":F1_8" function="internal">
        <lane id=":F1_8_0" index="0" speed="3.24" length="1.60" shape="382.61,98.40,73.48 382.61,100.00,73.48"/>
    </edge>
    <edge id=":F1_11" function="internal">
        <lane id=":F1_11_0" index="0" speed="3.24" length="1.60" shape="382.61,100.00,73.48 382.62,101.60,73.48"/>
    </edge>
    <edge id=":G0_0" function="internal">
        <lane id=":G0_0_0" index="0" speed="7.98" length="10.80" shape="535.19,8.46,-5.92 533.92,5.46,-5.92 532.27,3.32,-5.92 530.25,2.03,-5.92 527.85,1.60,-5.92"/>
    </edge>
    <edge id=":G0_1" function="internal">
        <lane id=":G0_1_0" index="0" speed="7.56" length="15.51" shape="535.19,8.46,-5.92 534.46,4.06,-5.92 535.45,0.92,-5.92 538.15,-0.97,-5.92 542.56,-1.60,-5.92"/>
    </edge>
    <edge id=":G0_2" function="internal">
        <lane id=":G0_2_0" index="0" speed="3.65" length="4.67" shape="535.19,8.46,-5.92 535.59,7.08,-5.92 536.24,6.45,-5.92 537.12,6.59,-5.92 538.24,7.50,-5.92"/>
    </edge>
    <edge id=":G0_3" function="internal">
        <lane id=":G0_3_0" index="0" speed="5.95" length="9.09" shape="542.56,1.60,-5.92 539.98,1.97,-5.92 538.39,3.07,-5.92 537.82,4.92,-5.92 538.24,7.50,-5.92"/>
    </edge>
    <edge id=":G0_4" function="internal">
        <lane id=":G0_4_0" index="0" speed="13.89" length="14.71" shape="542.56,1.60,-5.92 527.85,1.60,-5.92"/>
    </edge>
    <edge id=":G0_5" function="internal">
        <lane id=":G0_5_0" index="0" speed="3.65" length="2.34" shape="542.56,1.60,-5.92 541.36,0.80,-5.92 540.96,0.00,-5.92"/>
    </edge>
    <edge id=":G0_9" function="internal">
        <lane id=":G0_9_0" index="0" speed="3.65" length="2.34" shape="540.96,0.00,-5.92 541.36,-0.80,-5.92 542.56,-1.60,-5.92"/>
    </edge>
    <edge id=":G0_6" function="internal">
        <lane id=":G0_6_0" index="0" speed="13.89" length="14.71" shape="527.85,-1.60,-5.92 542.56,-1.60,-5.92"/>
    </edge>
    <edge id=":G0_7" function="internal">
        <lane id=":G0_7_0" index="0" speed="9.27" length="5.54" shape="527.85,-1.60,-5.92 531.32,-1.03,-5.92 533.07,-0.00,-5.92"/>
    </edge>
    <edge id=":G0_8" function="internal">
        <lane id=":G0_8_0" index="0" speed="3.65" length="2.34" shape="527.85,-1.60,-5.92 529.05,-0.80,-5.92 529.45,0.00,-5.92"/>
    </edge>
    <edge id=":G0_10" function="internal">
        <lane id=":G0_10_0" index="0" speed="9.27" length="9.33" shape="533.07,-0.00,-5.92 534.21,0.67,-5.92 536.52,3.52,-5.92 538.24,7.50,-5.92"/>
    </edge>
    <edge id=":G0_11" function="internal">
        <lane id=":G0_11_0" index="0" speed="3.65" length="2.34" shape="529.45,0.00,-5.92 529.05,0.80,-5.92 527.85,1.60,-5.92"/>
    </edge>
    <edge id=":G1_0" function="internal">
        <lane id=":G1_0_0" index="0" speed="13.89" length="14.71" shape="572.17,101.60,50.98 557.45,101.60,50.98"/>
    </edge>
    <edge id=":G1_1" function="internal">
        <lane id=":G1_1_0" index="0" speed="9.27" length="5.54" shape="572.17,101.60,50.98 568.70,101.03,50.98 566.95,100.00,50.98"/>
    </edge>
    <edge id=":G1_2" function="internal">
        <lane id=":G1_2_0" index="0" speed="3.65" length="2.34" shape="572.17,101.60,50.98 570.97,100.80,50.98 570.57,100.00,50.98"/>
    </edge>
    <edge id=":G1_9" function="internal">
        <lane id=":G1_9_0" index="0" speed="9.27" length="9.33" shape="566.95,100.00,50.98 565.81,99.33,50.98 563.50,96.48,50.98 561.77,92.50,50.98"/>
    </edge>
    <edge id=":G1_10" function="internal">
        <lane id=":G1_10_0" index="0" speed="3.65" length="2.34" shape="570.57,100.00,50.98 570.97,99.20,50.98 572.17,98.40,50.98"/>
    </edge>
    <edge id=":G1_3" function="internal">
        <lane id=":G1_3_0" index="0" speed="7.98" length="10.80" shape="564.82,91.54,50.98 566.10,94.54,50.98 567.74,96.68,50.98 569.77,97.97,50.98 572.17,98.40,50.98"/>
    </edge>
    <edge id=":G1_4" function="internal">
        <lane id=":G1_4_0" index="0" speed="7.56" length="15.51" shape="564.82,91.54,50.98 565.56,95.94,50.98 564.57,99.08,50.98 561.87,100.97,50.98 557.45,101.60,50.98"/>
    </edge>
    <edge id=":G1_5" function="internal">
        <lane id=":G1_5_0" index="0" speed="3.65" length="4.67" shape="564.82,91.54,50.98 564.42,92.92,50.98 563.78,93.55,50.98 562.90,93.41,50.98 561.77,92.50,50.98"/>
    </edge>
    <edge id=":G1_6" function="internal">
        <lane id=":G1_6_0" index="0" speed="5.95" length="9.09" shape="557.45,98.40,50.98 560.04,98.03,50.98 561.62,96.93,50.98 562.20,95.08,50.98 561.77,92.50,50.98"/>
    </edge>
    <edge id=":G1_7" function="internal">
        <lane id=":G1_7_0" index="0" speed="13.89" length="14.71" shape="557.45,98.40,50.98 572.17,98.40,50.98"/>
    </edge>
    <edge id=":G1_8" function="internal">
        <lane id=":G1_8_0" index="0" speed="3.65" length="2.34" shape="557.45,98.40,50.98 558.65,99.20,50.98 559.05,100.00,50.98"/>
    </edge>
    <edge id=":G1_11" function="internal">
        <lane id=":G1_11_0" index="0" speed="3.65" length="2.34" shape="559.05,100.00,50.98 558.65,100.80,50.98 557.45,101.60,50.98"/>
    </edge>
    <edge id=":H0_0" function="internal">