<?xml version="1.0" encoding="UTF-8"?>

<!-- generated on 07/24/20 11:51:54 by Eclipse SUMO netgenerate Version 1.5.0
<configuration xmlns:xsi="http://www.w3.org/2001/XMLSchema-instance" xsi:noNamespaceSchemaLocation="http://sumo.dlr.de/xsd/netgenerateConfiguration.xsd">

    <grid_network>
        <grid value="true"/>
        <grid.x-number value="20"/>
        <grid.y-number value="2"/>
    </grid_network>

    <output>
        <output-file value="1.net.xml"/>
    </output>

    <processing>
        <perturb-x value="10"/>
        <perturb-z value="30"/>
    </processing>

    <random_number>
        <seed value="6831837"/>
    </random_number>

</configuration>
-->

<net version="1.3" junctionCornerDetail="5" limitTurnSpeed="5.50" xmlns:xsi="http://www.w3.org/2001/XMLSchema-instance" xsi:noNamespaceSchemaLocation="http://sumo.dlr.de/xsd/net_file.xsd">

    <location netOffset="12.61,0.00" convBoundary="0.00,0.00,1919.29,100.00" origBoundary="-12.61,0.00,1906.68,100.00" projParameter="!"/>

    <edge id=":A0_0" function="internal">
        <lane id=":A0_0_0" index="0" speed="3.92" length="3.72" shape="16.72,1.60,18.24 16.09,1.69,19.03 15.62,1.94,19.69 15.30,2.38,20.36 15.13,2.98,21.14"/>
    </edge>
    <edge id=":A0_1" function="internal">
        <lane id=":A0_1_0" index="0" speed="6.10" length="7.50" shape="11.96,2.54,21.14 12.47,0.73,20.41 13.44,-0.57,19.78 14.85,-1.34,19.15 16.72,-1.60,18.42"/>
    </edge>
    <edge id=":A1_0" function="internal">
        <lane id=":A1_0_0" index="0" speed="6.07" length="8.60" shape="3.68,101.60,45.96 1.31,101.26,46.22 -0.27,100.23,46.44 -1.07,98.53,46.65 -1.08,96.14,46.91"/>
    </edge>
    <edge id=":A1_1" function="internal">
        <lane id=":A1_1_0" index="0" speed="3.90" length="2.96" shape="2.09,96.58,46.91 2.10,97.38,46.68 2.36,97.94,46.50 2.89,98.29,46.32 3.68,98.40,46.09"/>
    </edge>
    <edge id=":B0_0" function="internal">
        <lane id=":B0_0_0" index="0" speed="6.74" length="9.34" shape="100.04,7.47,-41.25 99.54,4.90,-41.25 98.40,3.07,-41.25 96.61,1.97,-41.25 94.18,1.60,-41.25"/>
    </edge>
    <edge id=":B0_1" function="internal">
        <lane id=":B0_1_0" index="0" speed="7.90" length="14.42" shape="100.04,7.47,-41.25 100.37,3.50,-41.25 101.91,0.67,-41.25 104.65,-1.03,-41.25 108.59,-1.60,-41.25"/>
    </edge>
    <edge id=":B0_2" function="internal">
        <lane id=":B0_2_0" index="0" speed="3.65" length="4.67" shape="100.04,7.47,-41.25 100.77,6.23,-41.25 101.54,5.78,-41.25 102.36,6.14,-41.25 103.23,7.29,-41.25"/>
    </edge>
    <edge id=":B0_3" function="internal">
        <lane id=":B0_3_0" index="0" speed="6.38" length="9.04" shape="108.59,1.60,-41.25 106.12,1.96,-41.25 104.41,3.02,-41.25 103.44,4.80,-41.25 103.23,7.29,-41.25"/>
    </edge>
    <edge id=":B0_4" function="internal">
        <lane id=":B0_4_0" index="0" speed="13.89" length="14.41" shape="108.59,1.60,-41.25 94.18,1.60,-41.25"/>
    </edge>
    <edge id=":B0_5" function="internal">
        <lane id=":B0_5_0" index="0" speed="3.65" length="2.34" shape="108.59,1.60,-41.25 107.39,0.80,-41.25 106.99,0.00,-41.25"/>
    </edge>
    <edge id=":B0_9" function="internal">
        <lane id=":B0_9_0" index="0" speed="3.65" length="2.34" shape="106.99,0.00,-41.25 107.39,-0.80,-41.25 108.59,-1.60,-41.25"/>
    </edge>
    <edge id=":B0_6" function="internal">
        <lane id=":B0_6_0" index="0" speed="13.89" length="14.41" shape="94.18,-1.60,-41.25 108.59,-1.60,-41.25"/>
    </edge>
    <edge id=":B0_7" function="internal">
        <lane id=":B0_7_0" index="0" speed="8.20" length="5.83" shape="94.18,-1.60,-41.25 97.95,-1.04,-41.25 99.68,0.00,-41.25"/>
    </edge>
    <edge id=":B0_8" function="internal">
        <lane id=":B0_8_0" index="0" speed="3.65" length="2.34" shape="94.18,-1.60,-41.25 95.38,-0.80,-41.25 95.78,0.00,-41.25"/>
    </edge>
    <edge id=":B0_10" function="internal">
        <lane id=":B0_10_0" index="0" speed="8.20" length="8.45" shape="99.68,0.00,-41.25 100.71,0.62,-41.25 102.47,3.40,-41.25 103.23,7.29,-41.25"/>
    </edge>
    <edge id=":B0_11" function="internal">
        <lane id=":B0_11_0" index="0" speed="3.65" length="2.34" shape="95.78,0.00,-41.25 95.38,0.80,-41.25 94.18,1.60,-41.25"/>
    </edge>
    <edge id=":B1_0" function="internal">
        <lane id=":B1_0_0" index="0" speed="13.89" length="14.41" shape="114.09,101.60,-5.15 99.68,101.60,-5.15"/>
    </edge>
    <edge id=":B1_1" function="internal">
        <lane id=":B1_1_0" index="0" speed="8.20" length="5.83" shape="114.09,101.60,-5.15 110.33,101.04,-5.15 108.60,100.00,-5.15"/>
    </edge>
    <edge id=":B1_2" function="internal">
        <lane id=":B1_2_0" index="0" speed="3.65" length="2.34" shape="114.09,101.60,-5.15 112.89,100.80,-5.15 112.49,100.00,-5.15"/>
    </edge>
    <edge id=":B1_9" function="internal">
        <lane id=":B1_9_0" index="0" speed="8.20" length="8.45" shape="108.60,100.00,-5.15 107.57,99.38,-5.15 105.81,96.60,-5.15 105.04,92.71,-5.15"/>
    </edge>
    <edge id=":B1_10" function="internal">
        <lane id=":B1_10_0" index="0" speed="3.65" length="2.34" shape="112.49,100.00,-5.15 112.89,99.20,-5.15 114.09,98.40,-5.15"/>
    </edge>
    <edge id=":B1_3" function="internal">
        <lane id=":B1_3_0" index="0" speed="6.74" length="9.34" shape="108.24,92.53,-5.15 108.73,95.10,-5.15 109.87,96.93,-5.15 111.66,98.03,-5.15 114.09,98.40,-5.15"/>
    </edge>
    <edge id=":B1_4" function="internal">
        <lane id=":B1_4_0" index="0" speed="7.90" length="14.42" shape="108.24,92.53,-5.15 107.90,96.50,-5.15 106.37,99.33,-5.15 103.63,101.03,-5.15 99.68,101.60,-5.15"/>
    </edge>
    <edge id=":B1_5" function="internal">
        <lane id=":B1_5_0" index="0" speed="3.65" length="4.67" shape="108.24,92.53,-5.15 107.51,93.77,-5.15 106.74,94.22,-5.15 105.91,93.86,-5.15 105.04,92.71,-5.15"/>
    </edge>
    <edge id=":B1_6" function="internal">
        <lane id=":B1_6_0" index="0" speed="6.38" length="9.04" shape="99.68,98.40,-5.15 102.15,98.04,-5.15 103.87,96.98,-5.15 104.83,95.20,-5.15 105.04,92.71,-5.15"/>
    </edge>
    <edge id=":B1_7" function="internal">
        <lane id=":B1_7_0" index="0" speed="13.89" length="14.41" shape="99.68,98.40,-5.15 114.09,98.40,-5.15"/>
    </edge>
    <edge id=":B1_8" function="internal">
        <lane id=":B1_8_0" index="0" speed="3.65" length="2.34" shape="99.68,98.40,-5.15 100.88,99.20,-5.15 101.28,100.00,-5.15"/>
    </edge>
    <edge id=":B1_11" function="internal">
        <lane id=":B1_11_0" index="0" speed="3.65" length="2.34" shape="101.28,100.00,-5.15 100.88,100.80,-5.15 99.68,101.60,-5.15"/>
    </edge>
    <edge id=":C0_0" function="internal">
        <lane id=":C0_0_0" index="0" speed="6.82" length="9.43" shape="238.14,1.60,2.88 235.71,1.97,2.88 233.91,3.09,2.88 232.74,4.95,2.88 232.20,7.55,2.88"/>
    </edge>
    <edge id=":C0_1" function="internal">
        <lane id=":C0_1_0" index="0" speed="13.89" length="14.42" shape="238.14,1.60,2.88 223.72,1.60,2.88"/>
    </edge>
    <edge id=":C0_2" function="internal">
        <lane id=":C0_2_0" index="0" speed="3.65" length="2.34" shape="238.14,1.60,2.88 236.94,0.80,2.88 236.54,0.00,2.88"/>
    </edge>
    <edge id=":C0_9" function="internal">
        <lane id=":C0_9_0" index="0" speed="3.65" length="2.34" shape="236.54,0.00,2.88 236.94,-0.80,2.88 238.14,-1.60,2.88"/>
    </edge>
    <edge id=":C0_3" function="internal">
        <lane id=":C0_3_0" index="0" speed="13.89" length="14.42" shape="223.72,-1.60,2.88 238.14,-1.60,2.88"/>
    </edge>
    <edge id=":C0_4" function="internal">
        <lane id=":C0_4_0" index="0" speed="7.87" length="5.95" shape="223.72,-1.60,2.88 227.69,-1.03,2.88 229.33,0.00,2.88"/>
    </edge>
    <edge id=":C0_5" function="internal">
        <lane id=":C0_5_0" index="0" speed="3.65" length="2.34" shape="223.72,-1.60,2.88 224.92,-0.80,2.88 225.32,0.00,2.88"/>
    </edge>
    <edge id=":C0_10" function="internal">
        <lane id=":C0_10_0" index="0" speed="7.87" length="8.54" shape="229.33,0.00,2.88 230.43,0.69,2.88 231.93,3.55,2.88 232.20,7.55,2.88"/>
    </edge>
    <edge id=":C0_11" function="internal">
        <lane id=":C0_11_0" index="0" speed="3.65" length="2.34" shape="225.32,0.00,2.88 224.92,0.80,2.88 223.72,1.60,2.88"/>
    </edge>
    <edge id=":C0_6" function="internal">
        <lane id=":C0_6_0" index="0" speed="6.35" length="9.04" shape="229.01,7.31,2.88 228.84,4.81,2.88 227.90,3.03,2.88 226.19,1.96,2.88 223.72,1.60,2.88"/>
    </edge>
    <edge id=":C0_7" function="internal">
        <lane id=":C0_7_0" index="0" speed="8.26" length="14.31" shape="229.01,7.31,2.88 229.83,3.41,2.88 231.63,0.63,2.88 234.40,-1.04,2.88 238.14,-1.60,2.88"/>
    </edge>
    <edge id=":C0_8" function="internal">
        <lane id=":C0_8_0" index="0" speed="3.65" length="4.67" shape="229.01,7.31,2.88 229.90,6.17,2.88 230.72,5.84,2.88 231.49,6.30,2.88 232.20,7.55,2.88"/>
    </edge>
    <edge id=":C1_0" function="internal">
        <lane id=":C1_0_0" index="0" speed="13.89" length="14.42" shape="231.00,101.60,-9.61 216.58,101.60,-9.61"/>
    </edge>
    <edge id=":C1_1" function="internal">
        <lane id=":C1_1_0" index="0" speed="7.87" length="5.95" shape="231.00,101.60,-9.61 227.03,101.03,-9.61 225.39,100.00,-9.61"/>
    </edge>
    <edge id=":C1_2" function="internal">
        <lane id=":C1_2_0" index="0" speed="3.65" length="2.34" shape="231.00,101.60,-9.61 229.80,100.80,-9.61 229.40,100.00,-9.61"/>
    </edge>
    <edge id=":C1_9" function="internal">
        <lane id=":C1_9_0" index="0" speed="7.87" length="8.54" shape="225.39,100.00,-9.61 224.29,99.31,-9.61 222.79,96.45,-9.61 222.52,92.45,-9.61"/>
    </edge>
    <edge id=":C1_10" function="internal">
        <lane id=":C1_10_0" index="0" speed="3.65" length="2.34" shape="229.40,100.00,-9.61 229.80,99.20,-9.61 231.00,98.40,-9.61"/>
    </edge>
    <edge id=":C1_3" function="internal">
        <lane id=":C1_3_0" index="0" speed="6.35" length="9.04" shape="225.71,92.69,-9.61 225.88,95.19,-9.61 226.81,96.97,-9.61 228.52,98.04,-9.61 231.00,98.40,-9.61"/>
    </edge>
    <edge id=":C1_4" function="internal">
        <lane id=":C1_4_0" index="0" speed="8.26" length="14.31" shape="225.71,92.69,-9.61 224.88,96.59,-9.61 223.09,99.37,-9.61 220.32,101.04,-9.61 216.58,101.60,-9.61"/>
    </edge>
    <edge id=":C1_5" function="internal">
        <lane id=":C1_5_0" index="0" speed="3.65" length="4.67" shape="225.71,92.69,-9.61 224.82,93.83,-9.61 223.99,94.16,-9.61 223.23,93.70,-9.61 222.52,92.45,-9.61"/>
    </edge>
    <edge id=":C1_6" function="internal">
        <lane id=":C1_6_0" index="0" speed="6.82" length="9.43" shape="216.58,98.40,-9.61 219.01,98.03,-9.61 220.81,96.91,-9.61 221.98,95.05,-9.61 222.52,92.45,-9.61"/>
    </edge>
    <edge id=":C1_7" function="internal">
        <lane id=":C1_7_0" index="0" speed="13.89" length="14.42" shape="216.58,98.40,-9.61 231.00,98.40,-9.61"/>
    </edge>
    <edge id=":C1_8" function="internal">
        <lane id=":C1_8_0" index="0" speed="3.65" length="2.34" shape="216.58,98.40,-9.61 217.78,99.20,-9.61 218.18,100.00,-9.61"/>
    </edge>
    <edge id=":C1_11" function="internal">
        <lane id=":C1_11_0" index="0" speed="3.65" length="2.34" shape="218.18,100.00,-9.61 217.78,100.80,-9.61 216.58,101.60,-9.61"/>
    </edge>
    <edge id=":D0_0" function="internal">
        <lane id=":D0_0_0" index="0" speed="6.80" length="9.40" shape="314.35,7.53,19.30 313.82,4.94,19.30 312.66,3.08,19.30 310.86,1.97,19.30 308.43,1.60,19.30"/>
    </edge>
    <edge id=":D0_1" function="internal">
        <lane id=":D0_1_0" index="0" speed="7.88" length="14.47" shape="314.35,7.53,19.30 314.63,3.54,19.30 316.15,0.68,19.30 318.89,-1.03,19.30 322.85,-1.60,19.30"/>
    </edge>
    <edge id=":D0_2" function="internal">
        <lane id=":D0_2_0" index="0" speed="3.65" length="4.67" shape="314.35,7.53,19.30 315.06,6.28,19.30 315.83,5.82,19.30 316.66,6.16,19.30 317.54,7.30,19.30"/>
    </edge>
    <edge id=":D0_3" function="internal">
        <lane id=":D0_3_0" index="0" speed="6.36" length="9.04" shape="322.85,1.60,19.30 320.37,1.96,19.30 318.66,3.03,19.30 317.72,4.81,19.30 317.54,7.30,19.30"/>
    </edge>
    <edge id=":D0_4" function="internal">
        <lane id=":D0_4_0" index="0" speed="13.89" length="14.42" shape="322.85,1.60,19.30 308.43,1.60,19.30"/>
    </edge>
    <edge id=":D0_5" function="internal">
        <lane id=":D0_5_0" index="0" speed="3.65" length="2.34" shape="322.85,1.60,19.30 321.65,0.80,19.30 321.25,0.00,19.30"/>
    </edge>
    <edge id=":D0_9" function="internal">
        <lane id=":D0_9_0" index="0" speed="3.65" length="2.34" shape="321.25,0.00,19.30 321.65,-0.80,19.30 322.85,-1.60,19.30"/>
    </edge>
    <edge id=":D0_6" function="internal">
        <lane id=":D0_6_0" index="0" speed="13.89" length="14.42" shape="308.43,-1.60,19.30 322.85,-1.60,19.30"/>
    </edge>
    <edge id=":D0_7" function="internal">
        <lane id=":D0_7_0" index="0" speed="8.24" length="5.81" shape="308.43,-1.60,19.30 312.18,-1.04,19.30 313.91,0.00,19.30"/>
    </edge>
    <edge id=":D0_8" function="internal">
        <lane id=":D0_8_0" index="0" speed="3.65" length="2.34" shape="308.43,-1.60,19.30 309.63,-0.80,19.30 310.03,0.00,19.30"/>
    </edge>
    <edge id=":D0_10" function="internal">
        <lane id=":D0_10_0" index="0" speed="8.24" length="8.50" shape="313.91,0.00,19.30 314.95,0.63,19.30 316.73,3.41,19.30 317.54,7.30,19.30"/>
    </edge>
    <edge id=":D0_11" function="internal">
        <lane id=":D0_11_0" index="0" speed="3.65" length="2.34" shape="310.03,0.00,19.30 309.63,0.80,19.30 308.43,1.60,19.30"/>
    </edge>
    <edge id=":D1_0" function="internal">
        <lane id=":D1_0_0" index="0" speed="13.89" length="14.42" shape="329.54,101.60,-12.45 315.12,101.60,-12.45"/>
    </edge>
    <edge id=":D1_1" function="internal">
        <lane id=":D1_1_0" index="0" speed="8.24" length="5.81" shape="329.54,101.60,-12.45 325.79,101.04,-12.45 324.06,100.00,-12.45"/>
    </edge>
    <edge id=":D1_2" function="internal">
        <lane id=":D1_2_0" index="0" speed="3.65" length="2.34" shape="329.54,101.60,-12.45 328.34,100.80,-12.45 327.94,100.00,-12.45"/>
    </edge>
    <edge id=":D1_9" function="internal">
        <lane id=":D1_9_0" index="0" speed="8.24" length="8.50" shape="324.06,100.00,-12.45 323.03,99.37,-12.45 321.24,96.59,-12.45 320.43,92.70,-12.45"/>
    </edge>
    <edge id=":D1_10" function="internal">
        <lane id=":D1_10_0" index="0" speed="3.65" length="2.34" shape="327.94,100.00,-12.45 328.34,99.20,-12.45 329.54,98.40,-12.45"/>
    </edge>
    <edge id=":D1_3" function="internal">
        <lane id=":D1_3_0" index="0" speed="6.80" length="9.40" shape="323.62,92.47,-12.45 324.15,95.06,-12.45 325.31,96.92,-12.45 327.11,98.03,-12.45 329.54,98.40,-12.45"/>
    </edge>
    <edge id=":D1_4" function="internal">
        <lane id=":D1_4_0" index="0" speed="7.88" length="14.47" shape="323.62,92.47,-12.45 323.34,96.46,-12.45 321.83,99.32,-12.45 319.09,101.03,-12.45 315.12,101.60,-12.45"/>
    </edge>
    <edge id=":D1_5" function="internal">
        <lane id=":D1_5_0" index="0" speed="3.65" length="4.67" shape="323.62,92.47,-12.45 322.91,93.72,-12.45 322.14,94.18,-12.45 321.32,93.84,-12.45 320.43,92.70,-12.45"/>
    </edge>
    <edge id=":D1_6" function="internal">
        <lane id=":D1_6_0" index="0" speed="6.36" length="9.04" shape="315.12,98.40,-12.45 317.60,98.04,-12.45 319.31,96.97,-12.45 320.25,95.19,-12.45 320.43,92.70,-12.45"/>
    </edge>
    <edge id=":D1_7" function="internal">
        <lane id=":D1_7_0" index="0" speed="13.89" length="14.42" shape="315.12,98.40,-12.45 329.54,98.40,-12.45"/>
    </edge>
    <edge id=":D1_8" function="internal">
        <lane id=":D1_8_0" index="0" speed="3.65" length="2.34" shape="315.12,98.40,-12.45 316.32,99.20,-12.45 316.72,100.00,-12.45"/>
    </edge>
    <edge id=":D1_11" function="internal">
        <lane id=":D1_11_0" index="0" speed="3.65" length="2.34" shape="316.72,100.00,-12.45 316.32,100.80,-12.45 315.12,101.60,-12.45"/>
    </edge>
    <edge id=":E0_0" function="internal">
        <lane id=":E0_0_0" index="0" speed="8.02" length="10.85" shape="396.06,8.49,-14.15 394.76,5.47,-14.15 393.09,3.32,-14.15 391.06,2.03,-14.15 388.66,1.60,-14.15"/>
    </edge>
    <edge id=":E0_1" function="internal">
        <lane id=":E0_1_0" index="0" speed="7.56" length="15.55" shape="396.06,8.49,-14.15 395.29,4.07,-14.15 396.25,0.92,-14.15 398.95,-0.97,-14.15 403.39,-1.60,-14.15"/>
    </edge>
    <edge id=":E0_2" function="internal">
        <lane id=":E0_2_0" index="0" speed="3.65" length="4.67" shape="396.06,8.49,-14.15 396.45,7.10,-14.15 397.08,6.47,-14.15 397.97,6.60,-14.15 399.10,7.50,-14.15"/>
    </edge>
    <edge id=":E0_3" function="internal">
        <lane id=":E0_3_0" index="0" speed="5.94" length="9.09" shape="403.39,1.60,-14.15 400.79,1.97,-14.15 399.21,3.07,-14.15 398.65,4.92,-14.15 399.10,7.50,-14.15"/>
    </edge>
    <edge id=":E0_4" function="internal">
        <lane id=":E0_4_0" index="0" speed="13.89" length="14.73" shape="403.39,1.60,-14.15 388.66,1.60,-14.15"/>
    </edge>
    <edge id=":E0_5" function="internal">
        <lane id=":E0_5_0" index="0" speed="3.65" length="2.34" shape="403.39,1.60,-14.15 402.19,0.80,-14.15 401.79,0.00,-14.15"/>
    </edge>
    <edge id=":E0_9" function="internal">
        <lane id=":E0_9_0" index="0" speed="3.65" length="2.34" shape="401.79,0.00,-14.15 402.19,-0.80,-14.15 403.39,-1.60,-14.15"/>
    </edge>
    <edge id=":E0_6" function="internal">
        <lane id=":E0_6_0" index="0" speed="13.89" length="14.73" shape="388.66,-1.60,-14.15 403.39,-1.60,-14.15"/>
    </edge>
    <edge id=":E0_7" function="internal">
        <lane id=":E0_7_0" index="0" speed="9.31" length="5.54" shape="388.66,-1.60,-14.15 392.12,-1.03,-14.15 393.87,0.00,-14.15"/>
    </edge>
    <edge id=":E0_8" function="internal">
        <lane id=":E0_8_0" index="0" speed="3.65" length="2.34" shape="388.66,-1.60,-14.15 389.86,-0.80,-14.15 390.26,0.00,-14.15"/>
    </edge>
    <edge id=":E0_10" function="internal">
        <lane id=":E0_10_0" index="0" speed="9.31" length="9.35" shape="393.87,0.00,-14.15 395.01,0.67,-14.15 397.34,3.52,-14.15 399.10,7.50,-14.15"/>
    </edge>
    <edge id=":E0_11" function="internal">
        <lane id=":E0_11_0" index="0" speed="3.65" length="2.34" shape="390.26,0.00,-14.15 389.86,0.80,-14.15 388.66,1.60,-14.15"/>
    </edge>
    <edge id=":E1_0" function="internal">
        <lane id=":E1_0_0" index="0" speed="13.89" length="14.73" shape="433.75,101.60,16.90 419.02,101.60,16.90"/>
    </edge>
    <edge id=":E1_1" function="internal">
        <lane id=":E1_1_0" index="0" speed="9.31" length="5.54" shape="433.75,101.60,16.90 430.29,101.03,16.90 428.54,100.00,16.90"/>
    </edge>
    <edge id=":E1_2" function="internal">
        <lane id=":E1_2_0" index="0" speed="3.65" length="2.34" shape="433.75,101.60,16.90 432.55,100.80,16.90 432.15,100.00,16.90"/>
    </edge>
    <edge id=":E1_9" function="internal">
        <lane id=":E1_9_0" index="0" speed="9.31" length="9.35" shape="428.54,100.00,16.90 427.39,99.33,16.90 425.07,96.48,16.90 423.31,92.50,16.90"/>
    </edge>
    <edge id=":E1_10" function="internal">
        <lane id=":E1_10_0" index="0" speed="3.65" length="2.34" shape="432.15,100.00,16.90 432.55,99.20,16.90 433.75,98.40,16.90"/>
    </edge>
    <edge id=":E1_3" function="internal">
        <lane id=":E1_3_0" index="0" speed="8.02" length="10.85" shape="426.35,91.51,16.90 427.65,94.53,16.90 429.32,96.68,16.90 431.35,97.97,16.90 433.75,98.40,16.90"/>
    </edge>
    <edge id=":E1_4" function="internal">
        <lane id=":E1_4_0" index="0" speed="7.56" length="15.55" shape="426.35,91.51,16.90 427.12,95.93,16.90 426.16,99.08,16.90 423.46,100.97,16.90 419.02,101.60,16.90"/>
    </edge>
    <edge id=":E1_5" function="internal">
        <lane id=":E1_5_0" index="0" speed="3.65" length="4.67" shape="426.35,91.51,16.90 425.96,92.90,16.90 425.32,93.53,16.90 424.44,93.40,16.90 423.31,92.50,16.90"/>
    </edge>
    <edge id=":E1_6" function="internal">
        <lane id=":E1_6_0" index="0" speed="5.94" length="9.09" shape="419.02,98.40,16.90 421.61,98.03,16.90 423.19,96.93,16.90 423.76,95.08,16.90 423.31,92.50,16.90"/>
    </edge>
    <edge id=":E1_7" function="internal">
        <lane id=":E1_7_0" index="0" speed="13.89" length="14.73" shape="419.02,98.40,16.90 433.75,98.40,16.90"/>
    </edge>
    <edge id=":E1_8" function="internal">
        <lane id=":E1_8_0" index="0" speed="3.65" length="2.34" shape="419.02,98.40,16.90 420.22,99.20,16.90 420.62,100.00,16.90"/>
    </edge>
    <edge id=":E1_11" function="internal">
        <lane id=":E1_11_0" index="0" speed="3.65" length="2.34" shape="420.62,100.00,16.90 420.22,100.80,16.90 419.02,101.60,16.90"/>
    </edge>
    <edge id=":F0_0" function="internal">
        <lane id=":F0_0_0" index="0" speed="7.21" length="9.92" shape="518.03,1.60,18.76 515.62,2.00,18.76 513.75,3.18,18.76 512.42,5.16,18.76 511.63,7.93,18.76"/>
    </edge>
    <edge id=":F0_1" function="internal">
        <lane id=":F0_1_0" index="0" speed="13.89" length="14.49" shape="518.03,1.60,18.76 503.54,1.60,18.76"/>
    </edge>
    <edge id=":F0_2" function="internal">
        <lane id=":F0_2_0" index="0" speed="3.65" length="2.34" shape="518.03,1.60,18.76 516.83,0.80,18.76 516.43,0.00,18.76"/>
    </edge>
    <edge id=":F0_9" function="internal">
        <lane id=":F0_9_0" index="0" speed="3.65" length="2.34" shape="516.43,0.00,18.76 516.83,-0.80,18.76 518.03,-1.60,18.76"/>
    </edge>
    <edge id=":F0_3" function="internal">
        <lane id=":F0_3_0" index="0" speed="13.89" length="14.49" shape="503.54,-1.60,18.76 518.03,-1.60,18.76"/>
    </edge>
    <edge id=":F0_4" function="internal">
        <lane id=":F0_4_0" index="0" speed="7.74" length="6.00" shape="503.54,-1.60,18.76 507.67,-1.00,18.76 509.20,0.00,18.76"/>
    </edge>
    <edge id=":F0_5" function="internal">
        <lane id=":F0_5_0" index="0" speed="3.65" length="2.34" shape="503.54,-1.60,18.76 504.74,-0.80,18.76 505.14,0.00,18.76"/>
    </edge>
    <edge id=":F0_10" function="internal">
        <lane id=":F0_10_0" index="0" speed="7.74" length="8.85" shape="509.20,0.00,18.76 510.39,0.78,18.76 511.71,3.76,18.76 511.63,7.93,18.76"/>
    </edge>
    <edge id=":F0_11" function="internal">
        <lane id=":F0_11_0" index="0" speed="3.65" length="2.34" shape="505.14,0.00,18.76 504.74,0.80,18.76 503.54,1.60,18.76"/>
    </edge>
    <edge id=":F0_6" function="internal">
        <lane id=":F0_6_0" index="0" speed="6.18" length="9.05" shape="508.47,7.41,18.76 508.52,4.87,18.76 507.72,3.05,18.76 506.06,1.96,18.76 503.54,1.60,18.76"/>
    </edge>
    <edge id=":F0_7" function="internal">
        <lane id=":F0_7_0" index="0" speed="8.60" length="14.49" shape="508.47,7.41,18.76 509.63,3.47,18.76 511.60,0.65,18.76 514.40,-1.04,18.76 518.03,-1.60,18.76"/>
    </edge>
    <edge id=":F0_8" function="internal">
        <lane id=":F0_8_0" index="0" speed="3.65" length="4.67" shape="508.47,7.41,18.76 509.46,6.35,18.76 510.31,6.09,18.76 511.03,6.61,18.76 511.63,7.93,18.76"/>
    </edge>
    <edge id=":F1_0" function="internal">
        <lane id=":F1_0_0" index="0" speed="13.89" length="14.49" shape="502.62,101.60,40.98 488.13,101.60,40.98"/>
    </edge>
    <edge id=":F1_1" function="internal">
        <lane id=":F1_1_0" index="0" speed="7.74" length="6.00" shape="502.62,101.60,40.98 498.49,101.00,40.98 496.96,100.00,40.98"/>
    </edge>
    <edge id=":F1_2" function="internal">
        <lane id=":F1_2_0" index="0" speed="3.65" length="2.34" shape="502.62,101.60,40.98 501.42,100.80,40.98 501.02,100.00,40.98"/>
    </edge>
    <edge id=":F1_9" function="internal">
        <lane id=":F1_9_0" index="0" speed="7.74" length="8.85" shape="496.96,100.00,40.98 495.77,99.22,40.98 494.45,96.24,40.98 494.53,92.07,40.98"/>
    </edge>
    <edge id=":F1_10" function="internal">
        <lane id=":F1_10_0" index="0" speed="3.65" length="2.34" shape="501.02,100.00,40.98 501.42,99.20,40.98 502.62,98.40,40.98"/>
    </edge>
    <edge id=":F1_3" function="internal">
        <lane id=":F1_3_0" index="0" speed="6.18" length="9.05" shape="497.69,92.59,40.98 497.64,95.13,40.98 498.45,96.95,40.98 500.10,98.04,40.98 502.62,98.40,40.98"/>
    </edge>
    <edge id=":F1_4" function="internal">
        <lane id=":F1_4_0" index="0" speed="8.60" length="14.49" shape="497.69,92.59,40.98 496.54,96.53,40.98 494.56,99.35,40.98 491.76,101.04,40.98 488.13,101.60,40.98"/>
    </edge>
    <edge id=":F1_5" function="internal">
        <lane id=":F1_5_0" index="0" speed="3.65" length="4.67" shape="497.69,92.59,40.98 496.71,93.65,40.98 495.85,93.91,40.98 495.13,93.39,40.98 494.53,92.07,40.98"/>
    </edge>
    <edge id=":F1_6" function="internal">
        <lane id=":F1_6_0" index="0" speed="7.21" length="9.92" shape="488.13,98.40,40.98 490.54,98.00,40.98 492.41,96.82,40.98 493.74,94.84,40.98 494.53,92.07,40.98"/>
    </edge>
    <edge id=":F1_7" function="internal">
        <lane id=":F1_7_0" index="0" speed="13.89" length="14.49" shape="488.13,98.40,40.98 502.62,98.40,40.98"/>
    </edge>
    <edge id=":F1_8" function="internal">
        <lane id=":F1_8_0" index="0" speed="3.65" length="2.34" shape="488.13,98.40,40.98 489.33,99.20,40.98 489.73,100.00,40.98"/>
    </edge>
    <edge id=":F1_11" function="internal">
        <lane id=":F1_11_0" index="0" speed="3.65" length="2.34" shape="489.73,100.00,40.98 489.33,100.80,40.98 488.13,101.60,40.98"/>
    </edge>
    <edge id=":G0_0" function="internal">
        <lane id=":G0_0_0" index="0" speed="7.68" length="10.47" shape="590.16,8.28,-18.15 589.07,5.36,-18.15 587.55,3.27,-18.15 585.59,2.02,-18.15 583.19,1.60,-18.15"/>
    </edge>
    <edge id=":G0_1" function="internal">
        <lane id=":G0_1_0" index="0" speed="7.62" length="15.26" shape="590.16,8.28,-18.15 589.68,3.96,-18.15 590.78,0.87,-18.15 593.49,-0.98,-18.15 597.80,-1.60,-18.15"/>
    </edge>
    <edge id=":G0_2" function="internal">
        <lane id=":G0_2_0" index="0" speed="3.65" length="4.67" shape="590.16,8.28,-18.15 590.64,6.92,-18.15 591.31,6.33,-18.15 592.18,6.51,-18.15 593.26,7.47,-18.15"/>
    </edge>
    <edge id=":G0_3" function="internal">
        <lane id=":G0_3_0" index="0" speed="6.03" length="9.07" shape="597.80,1.60,-18.15 595.24,1.97,-18.15 593.63,3.07,-18.15 592.97,4.90,-18.15 593.26,7.47,-18.15"/>
    </edge>
    <edge id=":G0_4" function="internal">
        <lane id=":G0_4_0" index="0" speed="13.89" length="14.61" shape="597.80,1.60,-18.15 583.19,1.60,-18.15"/>
    </edge>
    <edge id=":G0_5" function="internal">
        <lane id=":G0_5_0" index="0" speed="3.65" length="2.34" shape="597.80,1.60,-18.15 596.60,0.80,-18.15 596.20,0.00,-18.15"/>
    </edge>
    <edge id=":G0_9" function="internal">
        <lane id=":G0_9_0" index="0" speed="3.65" length="2.34" shape="596.20,0.00,-18.15 596.60,-0.80,-18.15 597.80,-1.60,-18.15"/>
    </edge>
    <edge id=":G0_6" function="internal">
        <lane id=":G0_6_0" index="0" speed="13.89" length="14.61" shape="583.19,-1.60,-18.15 597.80,-1.60,-18.15"/>
    </edge>
    <edge id=":G0_7" function="internal">
        <lane id=":G0_7_0" index="0" speed="9.01" length="5.58" shape="583.19,-1.60,-18.15 586.71,-1.03,-18.15 588.44,0.00,-18.15"/>
    </edge>
    <edge id=":G0_8" function="internal">
        <lane id=":G0_8_0" index="0" speed="3.65" length="2.34" shape="583.19,-1.60,-18.15 584.39,-0.80,-18.15 584.79,0.00,-18.15"/>
    </edge>
    <edge id=":G0_10" function="internal">
        <lane id=":G0_10_0" index="0" speed="9.01" length="9.13" shape="588.44,0.00,-18.15 589.56,0.67,-18.15 591.74,3.50,-18.15 593.26,7.47,-18.15"/>
    </edge>
    <edge id=":G0_11" function="internal">
        <lane id=":G0_11_0" index="0" speed="3.65" length="2.34" shape="584.79,0.00,-18.15 584.39,0.80,-18.15 583.19,1.60,-18.15"/>
    </edge>
    <edge id=":G1_0" function="internal">
        <lane id=":G1_0_0" index="0" speed="13.89" length="14.61" shape="622.20,101.60,-10.60 607.59,101.60,-10.60"/>
    </edge>
    <edge id=":G1_1" function="internal">
        <lane id=":G1_1_0" index="0" speed="9.01" length="5.58" shape="622.20,101.60,-10.60 618.68,101.03,-10.60 616.95,100.00,-10.60"/>
    </edge>
    <edge id=":G1_2" function="internal">
        <lane id=":G1_2_0" index="0" speed="3.65" length="2.34" shape="622.20,101.60,-10.60 621.00,100.80,-10.60 620.60,100.00,-10.60"/>
    </edge>
    <edge id=":G1_9" function="internal">
        <lane id=":G1_9_0" index="0" speed="9.01" length="9.13" shape="616.95,100.00,-10.60 615.83,99.33,-10.60 613.65,96.50,-10.60 612.13,92.53,-10.60"/>
    </edge>
    <edge id=":G1_10" function="internal">
        <lane id=":G1_10_0" index="0" speed="3.65" length="2.34" shape="620.60,100.00,-10.60 621.00,99.20,-10.60 622.20,98.40,-10.60"/>
    </edge>
    <edge id=":G1_3" function="internal">
        <lane id=":G1_3_0" index="0" speed="7.68" length="10.47" shape="615.22,91.72,-10.60 616.31,94.64,-10.60 617.84,96.73,-10.60 619.80,97.98,-10.60 622.20,98.40,-10.60"/>
    </edge>
    <edge id=":G1_4" function="internal">
        <lane id=":G1_4_0" index="0" speed="7.62" length="15.26" shape="615.22,91.72,-10.60 615.71,96.04,-10.60 614.60,99.13,-10.60 611.90,100.98,-10.60 607.59,101.60,-10.60"/>
    </edge>
    <edge id=":G1_5" function="internal">
        <lane id=":G1_5_0" index="0" speed="3.65" length="4.67" shape="615.22,91.72,-10.60 614.75,93.08,-10.60 614.08,93.67,-10.60 613.21,93.49,-10.60 612.13,92.53,-10.60"/>
    </edge>
    <edge id=":G1_6" function="internal">
        <lane id=":G1_6_0" index="0" speed="6.03" length="9.07" shape="607.59,98.40,-10.60 610.15,98.03,-10.60 611.76,96.93,-10.60 612.42,95.10,-10.60 612.13,92.53,-10.60"/>
    </edge>
    <edge id=":G1_7" function="internal">
        <lane id=":G1_7_0" index="0" speed="13.89" length="14.61" shape="607.59,98.40,-10.60 622.20,98.40,-10.60"/>
    </edge>
    <edge id=":G1_8" function="internal">