<?xml version="1.0" encoding="UTF-8"?>

<!-- generated on 07/28/20 19:11:36 by Eclipse SUMO netgenerate Version 1.5.0
<configuration xmlns:xsi="http://www.w3.org/2001/XMLSchema-instance" xsi:noNamespaceSchemaLocation="http://sumo.dlr.de/xsd/netgenerateConfiguration.xsd">

    <grid_network>
        <grid value="true"/>
        <grid.x-number value="21"/>
        <grid.y-number value="2"/>
    </grid_network>

    <output>
        <output-file value="1.net.xml"/>
    </output>

    <processing>
        <perturb-z value="25"/>
    </processing>

    <building_defaults>
        <default.speed value="100"/>
    </building_defaults>

    <random_number>
        <seed value="6831837"/>
    </random_number>

</configuration>
-->

<net version="1.3" junctionCornerDetail="5" limitTurnSpeed="5.50" xmlns:xsi="http://www.w3.org/2001/XMLSchema-instance" xsi:noNamespaceSchemaLocation="http://sumo.dlr.de/xsd/net_file.xsd">

    <location netOffset="0.00,0.00" convBoundary="0.00,0.00,2000.00,100.00" origBoundary="0.00,0.00,2000.00,100.00" projParameter="!"/>

    <edge id=":A0_0" function="internal">
        <lane id=":A0_0_0" index="0" speed="6.08" length="7.83" shape="-1.60,3.20,16.55 -1.30,1.10,16.87 -0.40,-0.40,17.13 1.10,-1.30,17.40 3.20,-1.60,17.72"/>
    </edge>
    <edge id=":A0_1" function="internal">
        <lane id=":A0_1_0" index="0" speed="3.90" length="2.86" shape="3.20,1.60,17.78 2.50,1.70,17.44 2.00,2.00,17.16 1.70,2.50,16.89 1.60,3.20,16.55"/>
    </edge>
    <edge id=":A1_0" function="internal">
        <lane id=":A1_0_0" index="0" speed="6.08" length="7.91" shape="3.20,101.60,2.10 1.10,101.30,2.55 -0.40,100.40,2.92 -1.30,98.90,3.29 -1.60,96.80,3.74"/>
    </edge>
    <edge id=":A1_1" function="internal">
        <lane id=":A1_1_0" index="0" speed="3.90" length="3.01" shape="1.60,96.80,3.74 1.70,97.50,3.32 2.00,98.00,2.97 2.50,98.30,2.62 3.20,98.40,2.19"/>
    </edge>
    <edge id=":B0_0" function="internal">
        <lane id=":B0_0_0" index="0" speed="6.51" length="9.03" shape="98.40,7.20,39.93 98.05,4.75,39.93 97.00,3.00,39.93 95.25,1.95,39.93 92.80,1.60,39.93"/>
    </edge>
    <edge id=":B0_1" function="internal">
        <lane id=":B0_1_0" index="0" speed="8.00" length="14.19" shape="98.40,7.20,39.93 98.95,3.35,39.93 100.60,0.60,39.93 103.35,-1.05,39.93 107.20,-1.60,39.93"/>
    </edge>
    <edge id=":B0_2" function="internal">
        <lane id=":B0_2_0" index="0" speed="3.65" length="4.67" shape="98.40,7.20,39.93 99.20,6.00,39.93 100.00,5.60,39.93 100.80,6.00,39.93 101.60,7.20,39.93"/>
    </edge>
    <edge id=":B0_3" function="internal">
        <lane id=":B0_3_0" index="0" speed="6.51" length="9.03" shape="107.20,1.60,39.93 104.75,1.95,39.93 103.00,3.00,39.93 101.95,4.75,39.93 101.60,7.20,39.93"/>
    </edge>
    <edge id=":B0_4" function="internal">
        <lane id=":B0_4_0" index="0" speed="100.00" length="14.40" shape="107.20,1.60,39.93 92.80,1.60,39.93"/>
    </edge>
    <edge id=":B0_5" function="internal">
        <lane id=":B0_5_0" index="0" speed="3.65" length="2.34" shape="107.20,1.60,39.93 106.00,0.80,39.93 105.60,0.00,39.93"/>
    </edge>
    <edge id=":B0_9" function="internal">
        <lane id=":B0_9_0" index="0" speed="3.65" length="2.34" shape="105.60,0.00,39.93 106.00,-0.80,39.93 107.20,-1.60,39.93"/>
    </edge>
    <edge id=":B0_6" function="internal">
        <lane id=":B0_6_0" index="0" speed="100.00" length="14.40" shape="92.80,-1.60,39.93 107.20,-1.60,39.93"/>
    </edge>
    <edge id=":B0_7" function="internal">
        <lane id=":B0_7_0" index="0" speed="8.00" length="5.93" shape="92.80,-1.60,39.93 96.65,-1.05,39.93 98.40,-0.00,39.93"/>
    </edge>
    <edge id=":B0_8" function="internal">
        <lane id=":B0_8_0" index="0" speed="3.65" length="2.34" shape="92.80,-1.60,39.93 94.00,-0.80,39.93 94.40,0.00,39.93"/>
    </edge>
    <edge id=":B0_10" function="internal">
        <lane id=":B0_10_0" index="0" speed="8.00" length="8.26" shape="98.40,-0.00,39.93 99.40,0.60,39.93 101.05,3.35,39.93 101.60,7.20,39.93"/>
    </edge>
    <edge id=":B0_11" function="internal">
        <lane id=":B0_11_0" index="0" speed="3.65" length="2.34" shape="94.40,0.00,39.93 94.00,0.80,39.93 92.80,1.60,39.93"/>
    </edge>
    <edge id=":B1_0" function="internal">
        <lane id=":B1_0_0" index="0" speed="100.00" length="14.40" shape="107.20,101.60,-31.52 92.80,101.60,-31.52"/>
    </edge>
    <edge id=":B1_1" function="internal">
        <lane id=":B1_1_0" index="0" speed="8.00" length="5.93" shape="107.20,101.60,-31.52 103.35,101.05,-31.52 101.60,100.00,-31.52"/>
    </edge>
    <edge id=":B1_2" function="internal">
        <lane id=":B1_2_0" index="0" speed="3.65" length="2.34" shape="107.20,101.60,-31.52 106.00,100.80,-31.52 105.60,100.00,-31.52"/>
    </edge>
    <edge id=":B1_9" function="internal">
        <lane id=":B1_9_0" index="0" speed="8.00" length="8.26" shape="101.60,100.00,-31.52 100.60,99.40,-31.52 98.95,96.65,-31.52 98.40,92.80,-31.52"/>
    </edge>
    <edge id=":B1_10" function="internal">
        <lane id=":B1_10_0" index="0" speed="3.65" length="2.34" shape="105.60,100.00,-31.52 106.00,99.20,-31.52 107.20,98.40,-31.52"/>
    </edge>
    <edge id=":B1_3" function="internal">
        <lane id=":B1_3_0" index="0" speed="6.51" length="9.03" shape="101.60,92.80,-31.52 101.95,95.25,-31.52 103.00,97.00,-31.52 104.75,98.05,-31.52 107.20,98.40,-31.52"/>
    </edge>
    <edge id=":B1_4" function="internal">
        <lane id=":B1_4_0" index="0" speed="8.00" length="14.19" shape="101.60,92.80,-31.52 101.05,96.65,-31.52 99.40,99.40,-31.52 96.65,101.05,-31.52 92.80,101.60,-31.52"/>
    </edge>
    <edge id=":B1_5" function="internal">
        <lane id=":B1_5_0" index="0" speed="3.65" length="4.67" shape="101.60,92.80,-31.52 100.80,94.00,-31.52 100.00,94.40,-31.52 99.20,94.00,-31.52 98.40,92.80,-31.52"/>
    </edge>
    <edge id=":B1_6" function="internal">
        <lane id=":B1_6_0" index="0" speed="6.51" length="9.03" shape="92.80,98.40,-31.52 95.25,98.05,-31.52 97.00,97.00,-31.52 98.05,95.25,-31.52 98.40,92.80,-31.52"/>
    </edge>
    <edge id=":B1_7" function="internal">
        <lane id=":B1_7_0" index="0" speed="100.00" length="14.40" shape="92.80,98.40,-31.52 107.20,98.40,-31.52"/>
    </edge>
    <edge id=":B1_8" function="internal">
        <lane id=":B1_8_0" index="0" speed="3.65" length="2.34" shape="92.80,98.40,-31.52 94.00,99.20,-31.52 94.40,100.00,-31.52"/>
    </edge>
    <edge id=":B1_11" function="internal">
        <lane id=":B1_11_0" index="0" speed="3.65" length="2.34" shape="94.40,100.00,-31.52 94.00,100.80,-31.52 92.80,101.60,-31.52"/>
    </edge>
    <edge id=":C0_0" function="internal">
        <lane id=":C0_0_0" index="0" speed="6.51" length="9.03" shape="198.40,7.20,-34.37 198.05,4.75,-34.37 197.00,3.00,-34.37 195.25,1.95,-34.37 192.80,1.60,-34.37"/>
    </edge>
    <edge id=":C0_1" function="internal">
        <lane id=":C0_1_0" index="0" speed="8.00" length="14.19" shape="198.40,7.20,-34.37 198.95,3.35,-34.37 200.60,0.60,-34.37 203.35,-1.05,-34.37 207.20,-1.60,-34.37"/>
    </edge>
    <edge id=":C0_2" function="internal">
        <lane id=":C0_2_0" index="0" speed="3.65" length="4.67" shape="198.40,7.20,-34.37 199.20,6.00,-34.37 200.00,5.60,-34.37 200.80,6.00,-34.37 201.60,7.20,-34.37"/>
    </edge>
    <edge id=":C0_3" function="internal">
        <lane id=":C0_3_0" index="0" speed="6.51" length="9.03" shape="207.20,1.60,-34.37 204.75,1.95,-34.37 203.00,3.00,-34.37 201.95,4.75,-34.37 201.60,7.20,-34.37"/>
    </edge>
    <edge id=":C0_4" function="internal">
        <lane id=":C0_4_0" index="0" speed="100.00" length="14.40" shape="207.20,1.60,-34.37 192.80,1.60,-34.37"/>
    </edge>
    <edge id=":C0_5" function="internal">
        <lane id=":C0_5_0" index="0" speed="3.65" length="2.34" shape="207.20,1.60,-34.37 206.00,0.80,-34.37 205.60,0.00,-34.37"/>
    </edge>
    <edge id=":C0_9" function="internal">
        <lane id=":C0_9_0" index="0" speed="3.65" length="2.34" shape="205.60,0.00,-34.37 206.00,-0.80,-34.37 207.20,-1.60,-34.37"/>
    </edge>
    <edge id=":C0_6" function="internal">
        <lane id=":C0_6_0" index="0" speed="100.00" length="14.40" shape="192.80,-1.60,-34.37 207.20,-1.60,-34.37"/>
    </edge>
    <edge id=":C0_7" function="internal">
        <lane id=":C0_7_0" index="0" speed="8.00" length="5.93" shape="192.80,-1.60,-34.37 196.65,-1.05,-34.37 198.40,0.00,-34.37"/>
    </edge>
    <edge id=":C0_8" function="internal">
        <lane id=":C0_8_0" index="0" speed="3.65" length="2.34" shape="192.80,-1.60,-34.37 194.00,-0.80,-34.37 194.40,0.00,-34.37"/>
    </edge>
    <edge id=":C0_10" function="internal">
        <lane id=":C0_10_0" index="0" speed="8.00" length="8.26" shape="198.40,0.00,-34.37 199.40,0.60,-34.37 201.05,3.35,-34.37 201.60,7.20,-34.37"/>
    </edge>
    <edge id=":C0_11" function="internal">
        <lane id=":C0_11_0" index="0" speed="3.65" length="2.34" shape="194.40,0.00,-34.37 194.00,0.80,-34.37 192.80,1.60,-34.37"/>
    </edge>
    <edge id=":C1_0" function="internal">
        <lane id=":C1_0_0" index="0" speed="100.00" length="14.40" shape="207.20,101.60,-28.52 192.80,101.60,-28.52"/>
    </edge>
    <edge id=":C1_1" function="internal">
        <lane id=":C1_1_0" index="0" speed="8.00" length="5.93" shape="207.20,101.60,-28.52 203.35,101.05,-28.52 201.60,100.00,-28.52"/>
    </edge>
    <edge id=":C1_2" function="internal">
        <lane id=":C1_2_0" index="0" speed="3.65" length="2.34" shape="207.20,101.60,-28.52 206.00,100.80,-28.52 205.60,100.00,-28.52"/>
    </edge>
    <edge id=":C1_9" function="internal">
        <lane id=":C1_9_0" index="0" speed="8.00" length="8.26" shape="201.60,100.00,-28.52 200.60,99.40,-28.52 198.95,96.65,-28.52 198.40,92.80,-28.52"/>
    </edge>
    <edge id=":C1_10" function="internal">
        <lane id=":C1_10_0" index="0" speed="3.65" length="2.34" shape="205.60,100.00,-28.52 206.00,99.20,-28.52 207.20,98.40,-28.52"/>
    </edge>
    <edge id=":C1_3" function="internal">
        <lane id=":C1_3_0" index="0" speed="6.51" length="9.03" shape="201.60,92.80,-28.52 201.95,95.25,-28.52 203.00,97.00,-28.52 204.75,98.05,-28.52 207.20,98.40,-28.52"/>
    </edge>
    <edge id=":C1_4" function="internal">
        <lane id=":C1_4_0" index="0" speed="8.00" length="14.19" shape="201.60,92.80,-28.52 201.05,96.65,-28.52 199.40,99.40,-28.52 196.65,101.05,-28.52 192.80,101.60,-28.52"/>
    </edge>
    <edge id=":C1_5" function="internal">
        <lane id=":C1_5_0" index="0" speed="3.65" length="4.67" shape="201.60,92.80,-28.52 200.80,94.00,-28.52 200.00,94.40,-28.52 199.20,94.00,-28.52 198.40,92.80,-28.52"/>
    </edge>
    <edge id=":C1_6" function="internal">
        <lane id=":C1_6_0" index="0" speed="6.51" length="9.03" shape="192.80,98.40,-28.52 195.25,98.05,-28.52 197.00,97.00,-28.52 198.05,95.25,-28.52 198.40,92.80,-28.52"/>
    </edge>
    <edge id=":C1_7" function="internal">
        <lane id=":C1_7_0" index="0" speed="100.00" length="14.40" shape="192.80,98.40,-28.52 207.20,98.40,-28.52"/>
    </edge>
    <edge id=":C1_8" function="internal">
        <lane id=":C1_8_0" index="0" speed="3.65" length="2.34" shape="192.80,98.40,-28.52 194.00,99.20,-28.52 194.40,100.00,-28.52"/>
    </edge>
    <edge id=":C1_11" function="internal">
        <lane id=":C1_11_0" index="0" speed="3.65" length="2.34" shape="194.40,100.00,-28.52 194.00,100.80,-28.52 192.80,101.60,-28.52"/>
    </edge>
    <edge id=":D0_0" function="internal">
        <lane id=":D0_0_0" index="0" speed="6.51" length="9.03" shape="298.40,7.20,-4.29 298.05,4.75,-4.29 297.00,3.00,-4.29 295.25,1.95,-4.29 292.80,1.60,-4.29"/>
    </edge>
    <edge id=":D0_1" function="internal">
        <lane id=":D0_1_0" index="0" speed="8.00" length="14.19" shape="298.40,7.20,-4.29 298.95,3.35,-4.29 300.60,0.60,-4.29 303.35,-1.05,-4.29 307.20,-1.60,-4.29"/>
    </edge>
    <edge id=":D0_2" function="internal">
        <lane id=":D0_2_0" index="0" speed="3.65" length="4.67" shape="298.40,7.20,-4.29 299.20,6.00,-4.29 300.00,5.60,-4.29 300.80,6.00,-4.29 301.60,7.20,-4.29"/>
    </edge>
    <edge id=":D0_3" function="internal">
        <lane id=":D0_3_0" index="0" speed="6.51" length="9.03" shape="307.20,1.60,-4.29 304.75,1.95,-4.29 303.00,3.00,-4.29 301.95,4.75,-4.29 301.60,7.20,-4.29"/>
    </edge>
    <edge id=":D0_4" function="internal">
        <lane id=":D0_4_0" index="0" speed="100.00" length="14.40" shape="307.20,1.60,-4.29 292.80,1.60,-4.29"/>
    </edge>
    <edge id=":D0_5" function="internal">
        <lane id=":D0_5_0" index="0" speed="3.65" length="2.34" shape="307.20,1.60,-4.29 306.00,0.80,-4.29 305.60,0.00,-4.29"/>
    </edge>
    <edge id=":D0_9" function="internal">
        <lane id=":D0_9_0" index="0" speed="3.65" length="2.34" shape="305.60,0.00,-4.29 306.00,-0.80,-4.29 307.20,-1.60,-4.29"/>
    </edge>
    <edge id=":D0_6" function="internal">
        <lane id=":D0_6_0" index="0" speed="100.00" length="14.40" shape="292.80,-1.60,-4.29 307.20,-1.60,-4.29"/>
    </edge>
    <edge id=":D0_7" function="internal">
        <lane id=":D0_7_0" index="0" speed="8.00" length="5.93" shape="292.80,-1.60,-4.29 296.65,-1.05,-4.29 298.40,-0.00,-4.29"/>
    </edge>
    <edge id=":D0_8" function="internal">
        <lane id=":D0_8_0" index="0" speed="3.65" length="2.34" shape="292.80,-1.60,-4.29 294.00,-0.80,-4.29 294.40,0.00,-4.29"/>
    </edge>
    <edge id=":D0_10" function="internal">
        <lane id=":D0_10_0" index="0" speed="8.00" length="8.26" shape="298.40,-0.00,-4.29 299.40,0.60,-4.29 301.05,3.35,-4.29 301.60,7.20,-4.29"/>
    </edge>
    <edge id=":D0_11" function="internal">
        <lane id=":D0_11_0" index="0" speed="3.65" length="2.34" shape="294.40,0.00,-4.29 294.00,0.80,-4.29 292.80,1.60,-4.29"/>
    </edge>
    <edge id=":D1_0" function="internal">
        <lane id=":D1_0_0" index="0" speed="100.00" length="14.40" shape="307.20,101.60,-13.83 292.80,101.60,-13.83"/>
    </edge>
    <edge id=":D1_1" function="internal">
        <lane id=":D1_1_0" index="0" speed="8.00" length="5.93" shape="307.20,101.60,-13.83 303.35,101.05,-13.83 301.60,100.00,-13.83"/>
    </edge>
    <edge id=":D1_2" function="internal">
        <lane id=":D1_2_0" index="0" speed="3.65" length="2.34" shape="307.20,101.60,-13.83 306.00,100.80,-13.83 305.60,100.00,-13.83"/>
    </edge>
    <edge id=":D1_9" function="internal">
        <lane id=":D1_9_0" index="0" speed="8.00" length="8.26" shape="301.60,100.00,-13.83 300.60,99.40,-13.83 298.95,96.65,-13.83 298.40,92.80,-13.83"/>
    </edge>
    <edge id=":D1_10" function="internal">
        <lane id=":D1_10_0" index="0" speed="3.65" length="2.34" shape="305.60,100.00,-13.83 306.00,99.20,-13.83 307.20,98.40,-13.83"/>
    </edge>
    <edge id=":D1_3" function="internal">
        <lane id=":D1_3_0" index="0" speed="6.51" length="9.03" shape="301.60,92.80,-13.83 301.95,95.25,-13.83 303.00,97.00,-13.83 304.75,98.05,-13.83 307.20,98.40,-13.83"/>
    </edge>
    <edge id=":D1_4" function="internal">
        <lane id=":D1_4_0" index="0" speed="8.00" length="14.19" shape="301.60,92.80,-13.83 301.05,96.65,-13.83 299.40,99.40,-13.83 296.65,101.05,-13.83 292.80,101.60,-13.83"/>
    </edge>
    <edge id=":D1_5" function="internal">
        <lane id=":D1_5_0" index="0" speed="3.65" length="4.67" shape="301.60,92.80,-13.83 300.80,94.00,-13.83 300.00,94.40,-13.83 299.20,94.00,-13.83 298.40,92.80,-13.83"/>
    </edge>
    <edge id=":D1_6" function="internal">
        <lane id=":D1_6_0" index="0" speed="6.51" length="9.03" shape="292.80,98.40,-13.83 295.25,98.05,-13.83 297.00,97.00,-13.83 298.05,95.25,-13.83 298.40,92.80,-13.83"/>
    </edge>
    <edge id=":D1_7" function="internal">
        <lane id=":D1_7_0" index="0" speed="100.00" length="14.40" shape="292.80,98.40,-13.83 307.20,98.40,-13.83"/>
    </edge>
    <edge id=":D1_8" function="internal">
        <lane id=":D1_8_0" index="0" speed="3.65" length="2.34" shape="292.80,98.40,-13.83 294.00,99.20,-13.83 294.40,100.00,-13.83"/>
    </edge>
    <edge id=":D1_11" function="internal">
        <lane id=":D1_11_0" index="0" speed="3.65" length="2.34" shape="294.40,100.00,-13.83 294.00,100.80,-13.83 292.80,101.60,-13.83"/>
    </edge>
    <edge id=":E0_0" function="internal">
        <lane id=":E0_0_0" index="0" speed="6.51" length="9.03" shape="398.40,7.20,2.40 398.05,4.75,2.40 397.00,3.00,2.40 395.25,1.95,2.40 392.80,1.60,2.40"/>
    </edge>
    <edge id=":E0_1" function="internal">
        <lane id=":E0_1_0" index="0" speed="8.00" length="14.19" shape="398.40,7.20,2.40 398.95,3.35,2.40 400.60,0.60,2.40 403.35,-1.05,2.40 407.20,-1.60,2.40"/>
    </edge>
    <edge id=":E0_2" function="internal">
        <lane id=":E0_2_0" index="0" speed="3.65" length="4.67" shape="398.40,7.20,2.40 399.20,6.00,2.40 400.00,5.60,2.40 400.80,6.00,2.40 401.60,7.20,2.40"/>
    </edge>
    <edge id=":E0_3" function="internal">
        <lane id=":E0_3_0" index="0" speed="6.51" length="9.03" shape="407.20,1.60,2.40 404.75,1.95,2.40 403.00,3.00,2.40 401.95,4.75,2.40 401.60,7.20,2.40"/>
    </edge>
    <edge id=":E0_4" function="internal">
        <lane id=":E0_4_0" index="0" speed="100.00" length="14.40" shape="407.20,1.60,2.40 392.80,1.60,2.40"/>
    </edge>
    <edge id=":E0_5" function="internal">
        <lane id=":E0_5_0" index="0" speed="3.65" length="2.34" shape="407.20,1.60,2.40 406.00,0.80,2.40 405.60,0.00,2.40"/>
    </edge>
    <edge id=":E0_9" function="internal">
        <lane id=":E0_9_0" index="0" speed="3.65" length="2.34" shape="405.60,0.00,2.40 406.00,-0.80,2.40 407.20,-1.60,2.40"/>
    </edge>
    <edge id=":E0_6" function="internal">
        <lane id=":E0_6_0" index="0" speed="100.00" length="14.40" shape="392.80,-1.60,2.40 407.20,-1.60,2.40"/>
    </edge>
    <edge id=":E0_7" function="internal">
        <lane id=":E0_7_0" index="0" speed="8.00" length="5.93" shape="392.80,-1.60,2.40 396.65,-1.05,2.40 398.40,-0.00,2.40"/>
    </edge>
    <edge id=":E0_8" function="internal">
        <lane id=":E0_8_0" index="0" speed="3.65" length="2.34" shape="392.80,-1.60,2.40 394.00,-0.80,2.40 394.40,0.00,2.40"/>
    </edge>
    <edge id=":E0_10" function="internal">
        <lane id=":E0_10_0" index="0" speed="8.00" length="8.26" shape="398.40,-0.00,2.40 399.40,0.60,2.40 401.05,3.35,2.40 401.60,7.20,2.40"/>
    </edge>
    <edge id=":E0_11" function="internal">
        <lane id=":E0_11_0" index="0" speed="3.65" length="2.34" shape="394.40,0.00,2.40 394.00,0.80,2.40 392.80,1.60,2.40"/>
    </edge>
    <edge id=":E1_0" function="internal">
        <lane id=":E1_0_0" index="0" speed="100.00" length="14.40" shape="407.20,101.60,46.40 392.80,101.60,46.40"/>
    </edge>
    <edge id=":E1_1" function="internal">
        <lane id=":E1_1_0" index="0" speed="8.00" length="5.93" shape="407.20,101.60,46.40 403.35,101.05,46.40 401.60,100.00,46.40"/>
    </edge>
    <edge id=":E1_2" function="internal">
        <lane id=":E1_2_0" index="0" speed="3.65" length="2.34" shape="407.20,101.60,46.40 406.00,100.80,46.40 405.60,100.00,46.40"/>
    </edge>
    <edge id=":E1_9" function="internal">
        <lane id=":E1_9_0" index="0" speed="8.00" length="8.26" shape="401.60,100.00,46.40 400.60,99.40,46.40 398.95,96.65,46.40 398.40,92.80,46.40"/>
    </edge>
    <edge id=":E1_10" function="internal">
        <lane id=":E1_10_0" index="0" speed="3.65" length="2.34" shape="405.60,100.00,46.40 406.00,99.20,46.40 407.20,98.40,46.40"/>
    </edge>
    <edge id=":E1_3" function="internal">
        <lane id=":E1_3_0" index="0" speed="6.51" length="9.03" shape="401.60,92.80,46.40 401.95,95.25,46.40 403.00,97.00,46.40 404.75,98.05,46.40 407.20,98.40,46.40"/>
    </edge>
    <edge id=":E1_4" function="internal">
        <lane id=":E1_4_0" index="0" speed="8.00" length="14.19" shape="401.60,92.80,46.40 401.05,96.65,46.40 399.40,99.40,46.40 396.65,101.05,46.40 392.80,101.60,46.40"/>
    </edge>
    <edge id=":E1_5" function="internal">
        <lane id=":E1_5_0" index="0" speed="3.65" length="4.67" shape="401.60,92.80,46.40 400.80,94.00,46.40 400.00,94.40,46.40 399.20,94.00,46.40 398.40,92.80,46.40"/>
    </edge>
    <edge id=":E1_6" function="internal">
        <lane id=":E1_6_0" index="0" speed="6.51" length="9.03" shape="392.80,98.40,46.40 395.25,98.05,46.40 397.00,97.00,46.40 398.05,95.25,46.40 398.40,92.80,46.40"/>
    </edge>
    <edge id=":E1_7" function="internal">
        <lane id=":E1_7_0" index="0" speed="100.00" length="14.40" shape="392.80,98.40,46.40 407.20,98.40,46.40"/>
    </edge>
    <edge id=":E1_8" function="internal">
        <lane id=":E1_8_0" index="0" speed="3.65" length="2.34" shape="392.80,98.40,46.40 394.00,99.20,46.40 394.40,100.00,46.40"/>
    </edge>
    <edge id=":E1_11" function="internal">
        <lane id=":E1_11_0" index="0" speed="3.65" length="2.34" shape="394.40,100.00,46.40 394.00,100.80,46.40 392.80,101.60,46.40"/>
    </edge>
    <edge id=":F0_0" function="internal">
        <lane id=":F0_0_0" index="0" speed="6.51" length="9.03" shape="498.40,7.20,-8.01 498.05,4.75,-8.01 497.00,3.00,-8.01 495.25,1.95,-8.01 492.80,1.60,-8.01"/>
    </edge>
    <edge id=":F0_1" function="internal">
        <lane id=":F0_1_0" index="0" speed="8.00" length="14.19" shape="498.40,7.20,-8.01 498.95,3.35,-8.01 500.60,0.60,-8.01 503.35,-1.05,-8.01 507.20,-1.60,-8.01"/>
    </edge>
    <edge id=":F0_2" function="internal">
        <lane id=":F0_2_0" index="0" speed="3.65" length="4.67" shape="498.40,7.20,-8.01 499.20,6.00,-8.01 500.00,5.60,-8.01 500.80,6.00,-8.01 501.60,7.20,-8.01"/>
    </edge>
    <edge id=":F0_3" function="internal">
        <lane id=":F0_3_0" index="0" speed="6.51" length="9.03" shape="507.20,1.60,-8.01 504.75,1.95,-8.01 503.00,3.00,-8.01 501.95,4.75,-8.01 501.60,7.20,-8.01"/>
    </edge>
    <edge id=":F0_4" function="internal">
        <lane id=":F0_4_0" index="0" speed="100.00" length="14.40" shape="507.20,1.60,-8.01 492.80,1.60,-8.01"/>
    </edge>
    <edge id=":F0_5" function="internal">
        <lane id=":F0_5_0" index="0" speed="3.65" length="2.34" shape="507.20,1.60,-8.01 506.00,0.80,-8.01 505.60,0.00,-8.01"/>
    </edge>
    <edge id=":F0_9" function="internal">
        <lane id=":F0_9_0" index="0" speed="3.65" length="2.34" shape="505.60,0.00,-8.01 506.00,-0.80,-8.01 507.20,-1.60,-8.01"/>
    </edge>
    <edge id=":F0_6" function="internal">
        <lane id=":F0_6_0" index="0" speed="100.00" length="14.40" shape="492.80,-1.60,-8.01 507.20,-1.60,-8.01"/>
    </edge>
    <edge id=":F0_7" function="internal">
        <lane id=":F0_7_0" index="0" speed="8.00" length="5.93" shape="492.80,-1.60,-8.01 496.65,-1.05,-8.01 498.40,-0.00,-8.01"/>
    </edge>
    <edge id=":F0_8" function="internal">
        <lane id=":F0_8_0" index="0" speed="3.65" length="2.34" shape="492.80,-1.60,-8.01 494.00,-0.80,-8.01 494.40,0.00,-8.01"/>
    </edge>
    <edge id=":F0_10" function="internal">
        <lane id=":F0_10_0" index="0" speed="8.00" length="8.26" shape="498.40,-0.00,-8.01 499.40,0.60,-8.01 501.05,3.35,-8.01 501.60,7.20,-8.01"/>
    </edge>
    <edge id=":F0_11" function="internal">
        <lane id=":F0_11_0" index="0" speed="3.65" length="2.34" shape="494.40,0.00,-8.01 494.00,0.80,-8.01 492.80,1.60,-8.01"/>
    </edge>
    <edge id=":F1_0" function="internal">
        <lane id=":F1_0_0" index="0" speed="100.00" length="14.40" shape="507.20,101.60,27.35 492.80,101.60,27.35"/>
    </edge>
    <edge id=":F1_1" function="internal">
        <lane id=":F1_1_0" index="0" speed="8.00" length="5.93" shape="507.20,101.60,27.35 503.35,101.05,27.35 501.60,100.00,27.35"/>
    </edge>
    <edge id=":F1_2" function="internal">
        <lane id=":F1_2_0" index="0" speed="3.65" length="2.34" shape="507.20,101.60,27.35 506.00,100.80,27.35 505.60,100.00,27.35"/>
    </edge>
    <edge id=":F1_9" function="internal">
        <lane id=":F1_9_0" index="0" speed="8.00" length="8.26" shape="501.60,100.00,27.35 500.60,99.40,27.35 498.95,96.65,27.35 498.40,92.80,27.35"/>
    </edge>
    <edge id=":F1_10" function="internal">
        <lane id=":F1_10_0" index="0" speed="3.65" length="2.34" shape="505.60,100.00,27.35 506.00,99.20,27.35 507.20,98.40,27.35"/>
    </edge>
    <edge id=":F1_3" function="internal">
        <lane id=":F1_3_0" index="0" speed="6.51" length="9.03" shape="501.60,92.80,27.35 501.95,95.25,27.35 503.00,97.00,27.35 504.75,98.05,27.35 507.20,98.40,27.35"/>
    </edge>
    <edge id=":F1_4" function="internal">
        <lane id=":F1_4_0" index="0" speed="8.00" length="14.19" shape="501.60,92.80,27.35 501.05,96.65,27.35 499.40,99.40,27.35 496.65,101.05,27.35 492.80,101.60,27.35"/>
    </edge>
    <edge id=":F1_5" function="internal">
        <lane id=":F1_5_0" index="0" speed="3.65" length="4.67" shape="501.60,92.80,27.35 500.80,94.00,27.35 500.00,94.40,27.35 499.20,94.00,27.35 498.40,92.80,27.35"/>
    </edge>
    <edge id=":F1_6" function="internal">
        <lane id=":F1_6_0" index="0" speed="6.51" length="9.03" shape="492.80,98.40,27.35 495.25,98.05,27.35 497.00,97.00,27.35 498.05,95.25,27.35 498.40,92.80,27.35"/>
    </edge>
    <edge id=":F1_7" function="internal">
        <lane id=":F1_7_0" index="0" speed="100.00" length="14.40" shape="492.80,98.40,27.35 507.20,98.40,27.35"/>
    </edge>
    <edge id=":F1_8" function="internal">
        <lane id=":F1_8_0" index="0" speed="3.65" length="2.34" shape="492.80,98.40,27.35 494.00,99.20,27.35 494.40,100.00,27.35"/>
    </edge>
    <edge id=":F1_11" function="internal">
        <lane id=":F1_11_0" index="0" speed="3.65" length="2.34" shape="494.40,100.00,27.35 494.00,100.80,27.35 492.80,101.60,27.35"/>
    </edge>
    <edge id=":G0_0" function="internal">
        <lane id=":G0_0_0" index="0" speed="6.51" length="9.03" shape="598.40,7.20,16.08 598.05,4.75,16.08 597.00,3.00,16.08 595.25,1.95,16.08 592.80,1.60,16.08"/>
    </edge>
    <edge id=":G0_1" function="internal">
        <lane id=":G0_1_0" index="0" speed="8.00" length="14.19" shape="598.40,7.20,16.08 598.95,3.35,16.08 600.60,0.60,16.08 603.35,-1.05,16.08 607.20,-1.60,16.08"/>
    </edge>
    <edge id=":G0_2" function="internal">
        <lane id=":G0_2_0" index="0" speed="3.65" length="4.67" shape="598.40,7.20,16.08 599.20,6.00,16.08 600.00,5.60,16.08 600.80,6.00,16.08 601.60,7.20,16.08"/>
    </edge>
    <edge id=":G0_3" function="internal">
        <lane id=":G0_3_0" index="0" speed="6.51" length="9.03" shape="607.20,1.60,16.08 604.75,1.95,16.08 603.00,3.00,16.08 601.95,4.75,16.08 601.60,7.20,16.08"/>
    </edge>
    <edge id=":G0_4" function="internal">
        <lane id=":G0_4_0" index="0" speed="100.00" length="14.40" shape="607.20,1.60,16.08 592.80,1.60,16.08"/>
    </edge>
    <edge id=":G0_5" function="internal">
        <lane id=":G0_5_0" index="0" speed="3.65" length="2.34" shape="607.20,1.60,16.08 606.00,0.80,16.08 605.60,0.00,16.08"/>
    </edge>
    <edge id=":G0_9" function="internal">
        <lane id=":G0_9_0" index="0" speed="3.65" length="2.34" shape="605.60,0.00,16.08 606.00,-0.80,16.08 607.20,-1.60,16.08"/>
    </edge>
    <edge id=":G0_6" function="internal">
        <lane id=":G0_6_0" index="0" speed="100.00" length="14.40" shape="592.80,-1.60,16.08 607.20,-1.60,16.08"/>
    </edge>
    <edge id=":G0_7" function="internal">
        <lane id=":G0_7_0" index="0" speed="8.00" length="5.93" shape="592.80,-1.60,16.08 596.65,-1.05,16.08 598.40,-0.00,16.08"/>
    </edge>
    <edge id=":G0_8" function="internal">
        <lane id=":G0_8_0" index="0" speed="3.65" length="2.34" shape="592.80,-1.60,16.08 594.00,-0.80,16.08 594.40,0.00,16.08"/>
    </edge>
    <edge id=":G0_10" function="internal">
        <lane id=":G0_10_0" index="0" speed="8.00" length="8.26" shape="598.40,-0.00,16.08 599.40,0.60,16.08 601.05,3.35,16.08 601.60,7.20,16.08"/>
    </edge>
    <edge id=":G0_11" function="internal">
        <lane id=":G0_11_0" index="0" speed="3.65" length="2.34" shape="594.40,0.00,16.08 594.00,0.80,16.08 592.80,1.60,16.08"/>
    </edge>
    <edge id=":G1_0" function="internal">
        <lane id=":G1_0_0" index="0" speed="100.00" length="14.40" shape="607.20,101.60,7.01 592.80,101.60,7.01"/>
    </edge>
    <edge id=":G1_1" function="internal">
        <lane id=":G1_1_0" index="0" speed="8.00" length="5.93" shape="607.20,101.60,7.01 603.35,101.05,7.01 601.60,100.00,7.01"/>
    </edge>
    <edge id=":G1_2" function="internal">
        <lane id=":G1_2_0" index="0" speed="3.65" length="2.34" shape="607.20,101.60,7.01 606.00,100.80,7.01 605.60,100.00,7.01"/>
    </edge>
    <edge id=":G1_9" function="internal">
        <lane id=":G1_9_0" index="0" speed="8.00" length="8.26" shape="601.60,100.00,7.01 600.60,99.40,7.01 598.95,96.65,7.01 598.40,92.80,7.01"/>
    </edge>
    <edge id=":G1_10" function="internal">
        <lane id=":G1_10_0" index="0" speed="3.65" length="2.34" shape="605.60,100.00,7.01 606.00,99.20,7.01 607.20,98.40,7.01"/>
    </edge>
    <edge id=":G1_3" function="internal">
        <lane id=":G1_3_0" index="0" speed="6.51" length="9.03" shape="601.60,92.80,7.01 601.95,95.25,7.01 603.00,97.00,7.01 604.75,98.05,7.01 607.20,98.40,7.01"/>
    </edge>
    <edge id=":G1_4" function="internal">
        <lane id=":G1_4_0" index="0" speed="8.00" length="14.19" shape="601.60,92.80,7.01 601.05,96.65,7.01 599.40,99.40,7.01 596.65,101.05,7.01 592.80,101.60,7.01"/>
    </edge>
    <edge id=":G1_5" function="internal">
        <lane id=":G1_5_0" index="0" speed="3.65" length="4.67" shape="601.60,92.80,7.01 600.80,94.00,7.01 600.00,94.40,7.01 599.20,94.00,7.01 598.40,92.80,7.01"/>
    </edge>
    <edge id=":G1_6" function="internal">
        <lane id=":G1_6_0" index="0" speed="6.51" length="9.03" shape="592.80,98.40,7.01 595.25,98.05,7.01 597.00,97.00,7.01 598.05,95.25,7.01 598.40,92.80,7.01"/>
    </edge>
    <edge id=":G1_7" function="internal">
        <lane id=":G1_7_0" index="0" speed="100.00" length="14.40" shape="592.80,98.40,7.01 607.20,98.40,7.01"/>
    </edge>
    <edge id=":G1_8" function="internal">