<?xml version="1.0" encoding="UTF-8"?>

<!-- generated on Fri Nov  6 10:50:37 2020 by Eclipse SUMO netgenerate Version 1.7.0
<configuration xmlns:xsi="http://www.w3.org/2001/XMLSchema-instance" xsi:noNamespaceSchemaLocation="http://sumo.dlr.de/xsd/netgenerateConfiguration.xsd">

    <grid_network>
        <grid value="true"/>
        <grid.x-number value="301"/>
        <grid.y-number value="2"/>
    </grid_network>

    <output>
        <output-file value="12.net.xml"/>
    </output>

    <processing>
        <perturb-z value="7"/>
    </processing>

    <building_defaults>
        <default.speed value="100"/>
    </building_defaults>

    <random_number>
        <seed value="71111820"/>
    </random_number>

</configuration>
-->

<net version="1.6" junctionCornerDetail="5" limitTurnSpeed="5.50" xmlns:xsi="http://www.w3.org/2001/XMLSchema-instance" xsi:noNamespaceSchemaLocation="http://sumo.dlr.de/xsd/net_file.xsd">

    <location netOffset="0.00,0.00" convBoundary="0.00,0.00,30000.00,100.00" origBoundary="0.00,0.00,30000.00,100.00" projParameter="!"/>

    <edge id=":AA0_0" function="internal">
        <lane id=":AA0_0_0" index="0" speed="6.08" length="7.76" shape="-1.60,3.20,-0.54 -1.30,1.10,-0.40 -0.40,-0.40,-0.29 1.10,-1.30,-0.18 3.20,-1.60,-0.04"/>
    </edge>
    <edge id=":AA0_1" function="internal">
        <lane id=":AA0_1_0" index="0" speed="3.90" length="2.63" shape="3.20,1.60,-0.01 2.50,1.70,-0.16 2.00,2.00,-0.28 1.70,2.50,-0.39 1.60,3.20,-0.54"/>
    </edge>
    <edge id=":AA1_0" function="internal">
        <lane id=":AA1_0_0" index="0" speed="6.08" length="7.74" shape="3.20,101.60,-4.41 1.10,101.30,-4.44 -0.40,100.40,-4.47 -1.30,98.90,-4.50 -1.60,96.80,-4.53"/>
    </edge>
    <edge id=":AA1_1" function="internal">
        <lane id=":AA1_1_0" index="0" speed="3.90" length="2.58" shape="1.60,96.80,-4.53 1.70,97.50,-4.50 2.00,98.00,-4.48 2.50,98.30,-4.46 3.20,98.40,-4.43"/>
    </edge>
    <edge id=":AB0_0" function="internal">
        <lane id=":AB0_0_0" index="0" speed="6.51" length="9.03" shape="98.40,7.20,10.79 98.05,4.75,10.79 97.00,3.00,10.79 95.25,1.95,10.79 92.80,1.60,10.79"/>
    </edge>
    <edge id=":AB0_1" function="internal">
        <lane id=":AB0_1_0" index="0" speed="8.00" length="14.19" shape="98.40,7.20,10.79 98.95,3.35,10.79 100.60,0.60,10.79 103.35,-1.05,10.79 107.20,-1.60,10.79"/>
    </edge>
    <edge id=":AB0_2" function="internal">
        <lane id=":AB0_2_0" index="0" speed="3.65" length="4.67" shape="98.40,7.20,10.79 99.20,6.00,10.79 100.00,5.60,10.79 100.80,6.00,10.79 101.60,7.20,10.79"/>
    </edge>
    <edge id=":AB0_3" function="internal">
        <lane id=":AB0_3_0" index="0" speed="6.51" length="9.03" shape="107.20,1.60,10.79 104.75,1.95,10.79 103.00,3.00,10.79 101.95,4.75,10.79 101.60,7.20,10.79"/>
    </edge>
    <edge id=":AB0_4" function="internal">
        <lane id=":AB0_4_0" index="0" speed="100.00" length="14.40" shape="107.20,1.60,10.79 92.80,1.60,10.79"/>
    </edge>
    <edge id=":AB0_5" function="internal">
        <lane id=":AB0_5_0" index="0" speed="3.65" length="2.34" shape="107.20,1.60,10.79 106.00,0.80,10.79 105.60,0.00,10.79"/>
    </edge>
    <edge id=":AB0_9" function="internal">
        <lane id=":AB0_9_0" index="0" speed="3.65" length="2.34" shape="105.60,0.00,10.79 106.00,-0.80,10.79 107.20,-1.60,10.79"/>
    </edge>
    <edge id=":AB0_6" function="internal">
        <lane id=":AB0_6_0" index="0" speed="100.00" length="14.40" shape="92.80,-1.60,10.79 107.20,-1.60,10.79"/>
    </edge>
    <edge id=":AB0_7" function="internal">
        <lane id=":AB0_7_0" index="0" speed="8.00" length="5.93" shape="92.80,-1.60,10.79 96.65,-1.05,10.79 98.40,0.00,10.79"/>
    </edge>
    <edge id=":AB0_8" function="internal">
        <lane id=":AB0_8_0" index="0" speed="3.65" length="2.34" shape="92.80,-1.60,10.79 94.00,-0.80,10.79 94.40,0.00,10.79"/>
    </edge>
    <edge id=":AB0_10" function="internal">
        <lane id=":AB0_10_0" index="0" speed="8.00" length="8.26" shape="98.40,0.00,10.79 99.40,0.60,10.79 101.05,3.35,10.79 101.60,7.20,10.79"/>
    </edge>
    <edge id=":AB0_11" function="internal">
        <lane id=":AB0_11_0" index="0" speed="3.65" length="2.34" shape="94.40,0.00,10.79 94.00,0.80,10.79 92.80,1.60,10.79"/>
    </edge>
    <edge id=":AB1_0" function="internal">
        <lane id=":AB1_0_0" index="0" speed="100.00" length="14.40" shape="107.20,101.60,2.58 92.80,101.60,2.58"/>
    </edge>
    <edge id=":AB1_1" function="internal">
        <lane id=":AB1_1_0" index="0" speed="8.00" length="5.93" shape="107.20,101.60,2.58 103.35,101.05,2.58 101.60,100.00,2.58"/>
    </edge>
    <edge id=":AB1_2" function="internal">
        <lane id=":AB1_2_0" index="0" speed="3.65" length="2.34" shape="107.20,101.60,2.58 106.00,100.80,2.58 105.60,100.00,2.58"/>
    </edge>
    <edge id=":AB1_9" function="internal">
        <lane id=":AB1_9_0" index="0" speed="8.00" length="8.26" shape="101.60,100.00,2.58 100.60,99.40,2.58 98.95,96.65,2.58 98.40,92.80,2.58"/>
    </edge>
    <edge id=":AB1_10" function="internal">
        <lane id=":AB1_10_0" index="0" speed="3.65" length="2.34" shape="105.60,100.00,2.58 106.00,99.20,2.58 107.20,98.40,2.58"/>
    </edge>
    <edge id=":AB1_3" function="internal">
        <lane id=":AB1_3_0" index="0" speed="6.51" length="9.03" shape="101.60,92.80,2.58 101.95,95.25,2.58 103.00,97.00,2.58 104.75,98.05,2.58 107.20,98.40,2.58"/>
    </edge>
    <edge id=":AB1_4" function="internal">
        <lane id=":AB1_4_0" index="0" speed="8.00" length="14.19" shape="101.60,92.80,2.58 101.05,96.65,2.58 99.40,99.40,2.58 96.65,101.05,2.58 92.80,101.60,2.58"/>
    </edge>
    <edge id=":AB1_5" function="internal">
        <lane id=":AB1_5_0" index="0" speed="3.65" length="4.67" shape="101.60,92.80,2.58 100.80,94.00,2.58 100.00,94.40,2.58 99.20,94.00,2.58 98.40,92.80,2.58"/>
    </edge>
    <edge id=":AB1_6" function="internal">
        <lane id=":AB1_6_0" index="0" speed="6.51" length="9.03" shape="92.80,98.40,2.58 95.25,98.05,2.58 97.00,97.00,2.58 98.05,95.25,2.58 98.40,92.80,2.58"/>
    </edge>
    <edge id=":AB1_7" function="internal">
        <lane id=":AB1_7_0" index="0" speed="100.00" length="14.40" shape="92.80,98.40,2.58 107.20,98.40,2.58"/>
    </edge>
    <edge id=":AB1_8" function="internal">
        <lane id=":AB1_8_0" index="0" speed="3.65" length="2.34" shape="92.80,98.40,2.58 94.00,99.20,2.58 94.40,100.00,2.58"/>
    </edge>
    <edge id=":AB1_11" function="internal">
        <lane id=":AB1_11_0" index="0" speed="3.65" length="2.34" shape="94.40,100.00,2.58 94.00,100.80,2.58 92.80,101.60,2.58"/>
    </edge>
    <edge id=":AC0_0" function="internal">
        <lane id=":AC0_0_0" index="0" speed="6.51" length="9.03" shape="198.40,7.20,-1.75 198.05,4.75,-1.75 197.00,3.00,-1.75 195.25,1.95,-1.75 192.80,1.60,-1.75"/>
    </edge>
    <edge id=":AC0_1" function="internal">
        <lane id=":AC0_1_0" index="0" speed="8.00" length="14.19" shape="198.40,7.20,-1.75 198.95,3.35,-1.75 200.60,0.60,-1.75 203.35,-1.05,-1.75 207.20,-1.60,-1.75"/>
    </edge>
    <edge id=":AC0_2" function="internal">
        <lane id=":AC0_2_0" index="0" speed="3.65" length="4.67" shape="198.40,7.20,-1.75 199.20,6.00,-1.75 200.00,5.60,-1.75 200.80,6.00,-1.75 201.60,7.20,-1.75"/>
    </edge>
    <edge id=":AC0_3" function="internal">
        <lane id=":AC0_3_0" index="0" speed="6.51" length="9.03" shape="207.20,1.60,-1.75 204.75,1.95,-1.75 203.00,3.00,-1.75 201.95,4.75,-1.75 201.60,7.20,-1.75"/>
    </edge>
    <edge id=":AC0_4" function="internal">
        <lane id=":AC0_4_0" index="0" speed="100.00" length="14.40" shape="207.20,1.60,-1.75 192.80,1.60,-1.75"/>
    </edge>
    <edge id=":AC0_5" function="internal">
        <lane id=":AC0_5_0" index="0" speed="3.65" length="2.34" shape="207.20,1.60,-1.75 206.00,0.80,-1.75 205.60,0.00,-1.75"/>
    </edge>
    <edge id=":AC0_9" function="internal">
        <lane id=":AC0_9_0" index="0" speed="3.65" length="2.34" shape="205.60,0.00,-1.75 206.00,-0.80,-1.75 207.20,-1.60,-1.75"/>
    </edge>
    <edge id=":AC0_6" function="internal">
        <lane id=":AC0_6_0" index="0" speed="100.00" length="14.40" shape="192.80,-1.60,-1.75 207.20,-1.60,-1.75"/>
    </edge>
    <edge id=":AC0_7" function="internal">
        <lane id=":AC0_7_0" index="0" speed="8.00" length="5.93" shape="192.80,-1.60,-1.75 196.65,-1.05,-1.75 198.40,0.00,-1.75"/>
    </edge>
    <edge id=":AC0_8" function="internal">
        <lane id=":AC0_8_0" index="0" speed="3.65" length="2.34" shape="192.80,-1.60,-1.75 194.00,-0.80,-1.75 194.40,0.00,-1.75"/>
    </edge>
    <edge id=":AC0_10" function="internal">
        <lane id=":AC0_10_0" index="0" speed="8.00" length="8.26" shape="198.40,0.00,-1.75 199.40,0.60,-1.75 201.05,3.35,-1.75 201.60,7.20,-1.75"/>
    </edge>
    <edge id=":AC0_11" function="internal">
        <lane id=":AC0_11_0" index="0" speed="3.65" length="2.34" shape="194.40,0.00,-1.75 194.00,0.80,-1.75 192.80,1.60,-1.75"/>
    </edge>
    <edge id=":AC1_0" function="internal">
        <lane id=":AC1_0_0" index="0" speed="100.00" length="14.40" shape="207.20,101.60,-7.78 192.80,101.60,-7.84"/>
    </edge>
    <edge id=":AC1_1" function="internal">
        <lane id=":AC1_1_0" index="0" speed="8.00" length="5.93" shape="207.20,101.60,-7.78 203.35,101.05,-7.79 201.60,100.00,-7.80"/>
    </edge>
    <edge id=":AC1_2" function="internal">
        <lane id=":AC1_2_0" index="0" speed="3.65" length="2.34" shape="207.20,101.60,-7.78 206.00,100.80,-7.78 205.60,100.00,-7.78"/>
    </edge>
    <edge id=":AC1_9" function="internal">
        <lane id=":AC1_9_0" index="0" speed="8.00" length="8.26" shape="201.60,100.00,-7.80 200.60,99.40,-7.81 198.95,96.65,-7.82 198.40,92.80,-7.84"/>
    </edge>
    <edge id=":AC1_10" function="internal">
        <lane id=":AC1_10_0" index="0" speed="3.65" length="2.34" shape="205.60,100.00,-7.78 206.00,99.20,-7.78 207.20,98.40,-7.78"/>
    </edge>
    <edge id=":AC1_3" function="internal">
        <lane id=":AC1_3_0" index="0" speed="6.51" length="9.03" shape="201.60,92.80,-7.84 201.95,95.25,-7.82 203.00,97.00,-7.81 204.75,98.05,-7.79 207.20,98.40,-7.78"/>
    </edge>
    <edge id=":AC1_4" function="internal">
        <lane id=":AC1_4_0" index="0" speed="8.00" length="14.19" shape="201.60,92.80,-7.84 201.05,96.65,-7.84 199.40,99.40,-7.84 196.65,101.05,-7.84 192.80,101.60,-7.84"/>
    </edge>
    <edge id=":AC1_5" function="internal">
        <lane id=":AC1_5_0" index="0" speed="3.65" length="4.67" shape="201.60,92.80,-7.84 200.80,94.00,-7.84 200.00,94.40,-7.84 199.20,94.00,-7.84 198.40,92.80,-7.84"/>
    </edge>
    <edge id=":AC1_6" function="internal">
        <lane id=":AC1_6_0" index="0" speed="6.51" length="9.03" shape="192.80,98.40,-7.84 195.25,98.05,-7.84 197.00,97.00,-7.84 198.05,95.25,-7.84 198.40,92.80,-7.84"/>
    </edge>
    <edge id=":AC1_7" function="internal">
        <lane id=":AC1_7_0" index="0" speed="100.00" length="14.40" shape="192.80,98.40,-7.84 207.20,98.40,-7.78"/>
    </edge>
    <edge id=":AC1_8" function="internal">
        <lane id=":AC1_8_0" index="0" speed="3.65" length="2.34" shape="192.80,98.40,-7.84 194.00,99.20,-7.84 194.40,100.00,-7.84"/>
    </edge>
    <edge id=":AC1_11" function="internal">
        <lane id=":AC1_11_0" index="0" speed="3.65" length="2.34" shape="194.40,100.00,-7.84 194.00,100.80,-7.84 192.80,101.60,-7.84"/>
    </edge>
    <edge id=":AD0_0" function="internal">
        <lane id=":AD0_0_0" index="0" speed="6.51" length="9.03" shape="298.40,7.20,3.10 298.05,4.75,3.10 297.00,3.00,3.10 295.25,1.95,3.10 292.80,1.60,3.10"/>
    </edge>
    <edge id=":AD0_1" function="internal">
        <lane id=":AD0_1_0" index="0" speed="8.00" length="14.19" shape="298.40,7.20,3.10 298.95,3.35,3.10 300.60,0.60,3.10 303.35,-1.05,3.10 307.20,-1.60,3.10"/>
    </edge>
    <edge id=":AD0_2" function="internal">
        <lane id=":AD0_2_0" index="0" speed="3.65" length="4.67" shape="298.40,7.20,3.10 299.20,6.00,3.10 300.00,5.60,3.10 300.80,6.00,3.10 301.60,7.20,3.10"/>
    </edge>
    <edge id=":AD0_3" function="internal">
        <lane id=":AD0_3_0" index="0" speed="6.51" length="9.03" shape="307.20,1.60,3.10 304.75,1.95,3.10 303.00,3.00,3.10 301.95,4.75,3.10 301.60,7.20,3.10"/>
    </edge>
    <edge id=":AD0_4" function="internal">
        <lane id=":AD0_4_0" index="0" speed="100.00" length="14.40" shape="307.20,1.60,3.10 292.80,1.60,3.10"/>
    </edge>
    <edge id=":AD0_5" function="internal">
        <lane id=":AD0_5_0" index="0" speed="3.65" length="2.34" shape="307.20,1.60,3.10 306.00,0.80,3.10 305.60,0.00,3.10"/>
    </edge>
    <edge id=":AD0_9" function="internal">
        <lane id=":AD0_9_0" index="0" speed="3.65" length="2.34" shape="305.60,0.00,3.10 306.00,-0.80,3.10 307.20,-1.60,3.10"/>
    </edge>
    <edge id=":AD0_6" function="internal">
        <lane id=":AD0_6_0" index="0" speed="100.00" length="14.40" shape="292.80,-1.60,3.10 307.20,-1.60,3.10"/>
    </edge>
    <edge id=":AD0_7" function="internal">
        <lane id=":AD0_7_0" index="0" speed="8.00" length="5.93" shape="292.80,-1.60,3.10 296.65,-1.05,3.10 298.40,-0.00,3.10"/>
    </edge>
    <edge id=":AD0_8" function="internal">
        <lane id=":AD0_8_0" index="0" speed="3.65" length="2.34" shape="292.80,-1.60,3.10 294.00,-0.80,3.10 294.40,0.00,3.10"/>
    </edge>
    <edge id=":AD0_10" function="internal">
        <lane id=":AD0_10_0" index="0" speed="8.00" length="8.26" shape="298.40,-0.00,3.10 299.40,0.60,3.10 301.05,3.35,3.10 301.60,7.20,3.10"/>
    </edge>
    <edge id=":AD0_11" function="internal">
        <lane id=":AD0_11_0" index="0" speed="3.65" length="2.34" shape="294.40,0.00,3.10 294.00,0.80,3.10 292.80,1.60,3.10"/>
    </edge>
    <edge id=":AD1_0" function="internal">
        <lane id=":AD1_0_0" index="0" speed="100.00" length="14.40" shape="307.20,101.60,-7.01 292.80,101.60,-7.07"/>
    </edge>
    <edge id=":AD1_1" function="internal">
        <lane id=":AD1_1_0" index="0" speed="8.00" length="5.93" shape="307.20,101.60,-7.01 303.35,101.05,-7.01 301.60,100.00,-7.01"/>
    </edge>
    <edge id=":AD1_2" function="internal">
        <lane id=":AD1_2_0" index="0" speed="3.65" length="2.34" shape="307.20,101.60,-7.01 306.00,100.80,-7.01 305.60,100.00,-7.01"/>
    </edge>
    <edge id=":AD1_9" function="internal">
        <lane id=":AD1_9_0" index="0" speed="8.00" length="8.26" shape="301.60,100.00,-7.01 300.60,99.40,-7.01 298.95,96.65,-7.01 298.40,92.80,-7.01"/>
    </edge>
    <edge id=":AD1_10" function="internal">
        <lane id=":AD1_10_0" index="0" speed="3.65" length="2.34" shape="305.60,100.00,-7.01 306.00,99.20,-7.01 307.20,98.40,-7.01"/>
    </edge>
    <edge id=":AD1_3" function="internal">
        <lane id=":AD1_3_0" index="0" speed="6.51" length="9.03" shape="301.60,92.80,-7.01 301.95,95.25,-7.01 303.00,97.00,-7.01 304.75,98.05,-7.01 307.20,98.40,-7.01"/>
    </edge>
    <edge id=":AD1_4" function="internal">
        <lane id=":AD1_4_0" index="0" speed="8.00" length="14.19" shape="301.60,92.80,-7.01 301.05,96.65,-7.03 299.40,99.40,-7.04 296.65,101.05,-7.06 292.80,101.60,-7.07"/>
    </edge>
    <edge id=":AD1_5" function="internal">
        <lane id=":AD1_5_0" index="0" speed="3.65" length="4.67" shape="301.60,92.80,-7.01 300.80,94.00,-7.01 300.00,94.40,-7.01 299.20,94.00,-7.01 298.40,92.80,-7.01"/>
    </edge>
    <edge id=":AD1_6" function="internal">
        <lane id=":AD1_6_0" index="0" speed="6.51" length="9.03" shape="292.80,98.40,-7.07 295.25,98.05,-7.06 297.00,97.00,-7.04 298.05,95.25,-7.03 298.40,92.80,-7.01"/>
    </edge>
    <edge id=":AD1_7" function="internal">
        <lane id=":AD1_7_0" index="0" speed="100.00" length="14.40" shape="292.80,98.40,-7.07 307.20,98.40,-7.01"/>
    </edge>
    <edge id=":AD1_8" function="internal">
        <lane id=":AD1_8_0" index="0" speed="3.65" length="2.34" shape="292.80,98.40,-7.07 294.00,99.20,-7.07 294.40,100.00,-7.07"/>
    </edge>
    <edge id=":AD1_11" function="internal">
        <lane id=":AD1_11_0" index="0" speed="3.65" length="2.34" shape="294.40,100.00,-7.07 294.00,100.80,-7.07 292.80,101.60,-7.07"/>
    </edge>
    <edge id=":AE0_0" function="internal">
        <lane id=":AE0_0_0" index="0" speed="6.51" length="9.03" shape="398.40,7.20,8.36 398.05,4.75,8.36 397.00,3.00,8.36 395.25,1.95,8.36 392.80,1.60,8.36"/>
    </edge>
    <edge id=":AE0_1" function="internal">
        <lane id=":AE0_1_0" index="0" speed="8.00" length="14.19" shape="398.40,7.20,8.36 398.95,3.35,8.35 400.60,0.60,8.35 403.35,-1.05,8.34 407.20,-1.60,8.34"/>
    </edge>
    <edge id=":AE0_2" function="internal">
        <lane id=":AE0_2_0" index="0" speed="3.65" length="4.67" shape="398.40,7.20,8.36 399.20,6.00,8.36 400.00,5.60,8.36 400.80,6.00,8.36 401.60,7.20,8.36"/>
    </edge>
    <edge id=":AE0_3" function="internal">
        <lane id=":AE0_3_0" index="0" speed="6.51" length="9.03" shape="407.20,1.60,8.34 404.75,1.95,8.34 403.00,3.00,8.35 401.95,4.75,8.35 401.60,7.20,8.36"/>
    </edge>
    <edge id=":AE0_4" function="internal">
        <lane id=":AE0_4_0" index="0" speed="100.00" length="14.40" shape="407.20,1.60,8.34 392.80,1.60,8.36"/>
    </edge>
    <edge id=":AE0_5" function="internal">
        <lane id=":AE0_5_0" index="0" speed="3.65" length="2.34" shape="407.20,1.60,8.34 406.00,0.80,8.34 405.60,0.00,8.34"/>
    </edge>
    <edge id=":AE0_9" function="internal">
        <lane id=":AE0_9_0" index="0" speed="3.65" length="2.34" shape="405.60,0.00,8.34 406.00,-0.80,8.34 407.20,-1.60,8.34"/>
    </edge>
    <edge id=":AE0_6" function="internal">
        <lane id=":AE0_6_0" index="0" speed="100.00" length="14.40" shape="392.80,-1.60,8.36 407.20,-1.60,8.34"/>
    </edge>
    <edge id=":AE0_7" function="internal">
        <lane id=":AE0_7_0" index="0" speed="8.00" length="5.93" shape="392.80,-1.60,8.36 396.65,-1.05,8.36 398.40,-0.00,8.36"/>
    </edge>
    <edge id=":AE0_8" function="internal">
        <lane id=":AE0_8_0" index="0" speed="3.65" length="2.34" shape="392.80,-1.60,8.36 394.00,-0.80,8.36 394.40,0.00,8.36"/>
    </edge>
    <edge id=":AE0_10" function="internal">
        <lane id=":AE0_10_0" index="0" speed="8.00" length="8.26" shape="398.40,-0.00,8.36 399.40,0.60,8.36 401.05,3.35,8.36 401.60,7.20,8.36"/>
    </edge>
    <edge id=":AE0_11" function="internal">
        <lane id=":AE0_11_0" index="0" speed="3.65" length="2.34" shape="394.40,0.00,8.36 394.00,0.80,8.36 392.80,1.60,8.36"/>
    </edge>
    <edge id=":AE1_0" function="internal">
        <lane id=":AE1_0_0" index="0" speed="100.00" length="14.40" shape="407.20,101.60,0.72 392.80,101.60,0.72"/>
    </edge>
    <edge id=":AE1_1" function="internal">
        <lane id=":AE1_1_0" index="0" speed="8.00" length="5.93" shape="407.20,101.60,0.72 403.35,101.05,0.72 401.60,100.00,0.72"/>
    </edge>
    <edge id=":AE1_2" function="internal">
        <lane id=":AE1_2_0" index="0" speed="3.65" length="2.34" shape="407.20,101.60,0.72 406.00,100.80,0.72 405.60,100.00,0.72"/>
    </edge>
    <edge id=":AE1_9" function="internal">
        <lane id=":AE1_9_0" index="0" speed="8.00" length="8.26" shape="401.60,100.00,0.72 400.60,99.40,0.72 398.95,96.65,0.72 398.40,92.80,0.72"/>
    </edge>
    <edge id=":AE1_10" function="internal">
        <lane id=":AE1_10_0" index="0" speed="3.65" length="2.34" shape="405.60,100.00,0.72 406.00,99.20,0.72 407.20,98.40,0.72"/>
    </edge>
    <edge id=":AE1_3" function="internal">
        <lane id=":AE1_3_0" index="0" speed="6.51" length="9.03" shape="401.60,92.80,0.72 401.95,95.25,0.72 403.00,97.00,0.72 404.75,98.05,0.72 407.20,98.40,0.72"/>
    </edge>
    <edge id=":AE1_4" function="internal">
        <lane id=":AE1_4_0" index="0" speed="8.00" length="14.19" shape="401.60,92.80,0.72 401.05,96.65,0.72 399.40,99.40,0.72 396.65,101.05,0.72 392.80,101.60,0.72"/>
    </edge>
    <edge id=":AE1_5" function="internal">
        <lane id=":AE1_5_0" index="0" speed="3.65" length="4.67" shape="401.60,92.80,0.72 400.80,94.00,0.72 400.00,94.40,0.72 399.20,94.00,0.72 398.40,92.80,0.72"/>
    </edge>
    <edge id=":AE1_6" function="internal">
        <lane id=":AE1_6_0" index="0" speed="6.51" length="9.03" shape="392.80,98.40,0.72 395.25,98.05,0.72 397.00,97.00,0.72 398.05,95.25,0.72 398.40,92.80,0.72"/>
    </edge>
    <edge id=":AE1_7" function="internal">
        <lane id=":AE1_7_0" index="0" speed="100.00" length="14.40" shape="392.80,98.40,0.72 407.20,98.40,0.72"/>
    </edge>
    <edge id=":AE1_8" function="internal">
        <lane id=":AE1_8_0" index="0" speed="3.65" length="2.34" shape="392.80,98.40,0.72 394.00,99.20,0.72 394.40,100.00,0.72"/>
    </edge>
    <edge id=":AE1_11" function="internal">
        <lane id=":AE1_11_0" index="0" speed="3.65" length="2.34" shape="394.40,100.00,0.72 394.00,100.80,0.72 392.80,101.60,0.72"/>
    </edge>
    <edge id=":AF0_0" function="internal">
        <lane id=":AF0_0_0" index="0" speed="6.51" length="9.03" shape="498.40,7.20,8.05 498.05,4.75,8.06 497.00,3.00,8.06 495.25,1.95,8.07 492.80,1.60,8.07"/>
    </edge>
    <edge id=":AF0_1" function="internal">
        <lane id=":AF0_1_0" index="0" speed="8.00" length="14.19" shape="498.40,7.20,8.05 498.95,3.35,8.01 500.60,0.60,7.97 503.35,-1.05,7.93 507.20,-1.60,7.89"/>
    </edge>
    <edge id=":AF0_2" function="internal">
        <lane id=":AF0_2_0" index="0" speed="3.65" length="4.67" shape="498.40,7.20,8.05 499.20,6.00,8.05 500.00,5.60,8.05 500.80,6.00,8.05 501.60,7.20,8.05"/>
    </edge>
    <edge id=":AF0_3" function="internal">
        <lane id=":AF0_3_0" index="0" speed="6.51" length="9.03" shape="507.20,1.60,7.89 504.75,1.95,7.93 503.00,3.00,7.97 501.95,4.75,8.01 501.60,7.20,8.05"/>
    </edge>
    <edge id=":AF0_4" function="internal">
        <lane id=":AF0_4_0" index="0" speed="100.00" length="14.40" shape="507.20,1.60,7.89 492.80,1.60,8.07"/>
    </edge>
    <edge id=":AF0_5" function="internal">
        <lane id=":AF0_5_0" index="0" speed="3.65" length="2.34" shape="507.20,1.60,7.89 506.00,0.80,7.89 505.60,0.00,7.89"/>
    </edge>
    <edge id=":AF0_9" function="internal">
        <lane id=":AF0_9_0" index="0" speed="3.65" length="2.34" shape="505.60,0.00,7.89 506.00,-0.80,7.89 507.20,-1.60,7.89"/>
    </edge>
    <edge id=":AF0_6" function="internal">
        <lane id=":AF0_6_0" index="0" speed="100.00" length="14.40" shape="492.80,-1.60,8.07 507.20,-1.60,7.89"/>
    </edge>
    <edge id=":AF0_7" function="internal">
        <lane id=":AF0_7_0" index="0" speed="8.00" length="5.93" shape="492.80,-1.60,8.07 496.65,-1.05,8.07 498.40,-0.00,8.06"/>
    </edge>
    <edge id=":AF0_8" function="internal">
        <lane id=":AF0_8_0" index="0" speed="3.65" length="2.34" shape="492.80,-1.60,8.07 494.00,-0.80,8.07 494.40,0.00,8.07"/>
    </edge>
    <edge id=":AF0_10" function="internal">
        <lane id=":AF0_10_0" index="0" speed="8.00" length="8.26" shape="498.40,-0.00,8.06 499.40,0.60,8.06 501.05,3.35,8.06 501.60,7.20,8.05"/>
    </edge>
    <edge id=":AF0_11" function="internal">
        <lane id=":AF0_11_0" index="0" speed="3.65" length="2.34" shape="494.40,0.00,8.07 494.00,0.80,8.07 492.80,1.60,8.07"/>
    </edge>
    <edge id=":AF1_0" function="internal">
        <lane id=":AF1_0_0" index="0" speed="100.00" length="14.40" shape="507.20,101.60,5.29 492.80,101.60,5.15"/>
    </edge>
    <edge id=":AF1_1" function="internal">
        <lane id=":AF1_1_0" index="0" speed="8.00" length="5.93" shape="507.20,101.60,5.29 503.35,101.05,5.25 501.60,100.00,5.23"/>
    </edge>
    <edge id=":AF1_2" function="internal">
        <lane id=":AF1_2_0" index="0" speed="3.65" length="2.34" shape="507.20,101.60,5.29 506.00,100.80,5.29 505.60,100.00,5.29"/>
    </edge>
    <edge id=":AF1_9" function="internal">
        <lane id=":AF1_9_0" index="0" speed="8.00" length="8.26" shape="501.60,100.00,5.23 500.60,99.40,5.22 498.95,96.65,5.19 498.40,92.80,5.15"/>
    </edge>
    <edge id=":AF1_10" function="internal">
        <lane id=":AF1_10_0" index="0" speed="3.65" length="2.34" shape="505.60,100.00,5.29 506.00,99.20,5.29 507.20,98.40,5.29"/>
    </edge>
    <edge id=":AF1_3" function="internal">
        <lane id=":AF1_3_0" index="0" speed="6.51" length="9.03" shape="501.60,92.80,5.15 501.95,95.25,5.19 503.00,97.00,5.22 504.75,98.05,5.25 507.20,98.40,5.29"/>
    </edge>
    <edge id=":AF1_4" function="internal">
        <lane id=":AF1_4_0" index="0" speed="8.00" length="14.19" shape="501.60,92.80,5.15 501.05,96.65,5.15 499.40,99.40,5.15 496.65,101.05,5.15 492.80,101.60,5.15"/>
    </edge>
    <edge id=":AF1_5" function="internal">
        <lane id=":AF1_5_0" index="0" speed="3.65" length="4.67" shape="501.60,92.80,5.15 500.80,94.00,5.15 500.00,94.40,5.15 499.20,94.00,5.15 498.40,92.80,5.15"/>
    </edge>
    <edge id=":AF1_6" function="internal">
        <lane id=":AF1_6_0" index="0" speed="6.51" length="9.03" shape="492.80,98.40,5.15 495.25,98.05,5.15 497.00,97.00,5.15 498.05,95.25,5.15 498.40,92.80,5.15"/>
    </edge>
    <edge id=":AF1_7" function="internal">
        <lane id=":AF1_7_0" index="0" speed="100.00" length="14.40" shape="492.80,98.40,5.15 507.20,98.40,5.29"/>
    </edge>
    <edge id=":AF1_8" function="internal">
        <lane id=":AF1_8_0" index="0" speed="3.65" length="2.34" shape="492.80,98.40,5.15 494.00,99.20,5.15 494.40,100.00,5.15"/>
    </edge>
    <edge id=":AF1_11" function="internal">
        <lane id=":AF1_11_0" index="0" speed="3.65" length="2.34" shape="494.40,100.00,5.15 494.00,100.80,5.15 492.80,101.60,5.15"/>
    </edge>
    <edge id=":AG0_0" function="internal">
        <lane id=":AG0_0_0" index="0" speed="6.51" length="9.03" shape="598.40,7.20,5.89 598.05,4.75,5.91 597.00,3.00,5.93 595.25,1.95,5.94 592.80,1.60,5.96"/>
    </edge>
    <edge id=":AG0_1" function="internal">
        <lane id=":AG0_1_0" index="0" speed="8.00" length="14.19" shape="598.40,7.20,5.89 598.95,3.35,5.87 600.60,0.60,5.85 603.35,-1.05,5.83 607.20,-1.60,5.80"/>
    </edge>
    <edge id=":AG0_2" function="internal">
        <lane id=":AG0_2_0" index="0" speed="3.65" length="4.67" shape="598.40,7.20,5.89 599.20,6.00,5.89 600.00,5.60,5.89 600.80,6.00,5.89 601.60,7.20,5.89"/>
    </edge>
    <edge id=":AG0_3" function="internal">
        <lane id=":AG0_3_0" index="0" speed="6.51" length="9.03" shape="607.20,1.60,5.80 604.75,1.95,5.83 603.00,3.00,5.85 601.95,4.75,5.87 601.60,7.20,5.89"/>
    </edge>
    <edge id=":AG0_4" function="internal">
        <lane id=":AG0_4_0" index="0" speed="100.00" length="14.40" shape="607.20,1.60,5.80 592.80,1.60,5.96"/>
    </edge>
    <edge id=":AG0_5" function="internal">
        <lane id=":AG0_5_0" index="0" speed="3.65" length="2.34" shape="607.20,1.60,5.80 606.00,0.80,5.80 605.60,0.00,5.80"/>
    </edge>
    <edge id=":AG0_9" function="internal">
        <lane id=":AG0_9_0" index="0" speed="3.65" length="2.34" shape="605.60,0.00,5.80 606.00,-0.80,5.80 607.20,-1.60,5.80"/>
    </edge>
    <edge id=":AG0_6" function="internal">
        <lane id=":AG0_6_0" index="0" speed="100.00" length="14.40" shape="592.80,-1.60,5.96 607.20,-1.60,5.80"/>
    </edge>
    <edge id=":AG0_7" function="internal">
        <lane id=":AG0_7_0" index="0" speed="8.00" length="5.93" shape="592.80,-1.60,5.96 596.65,-1.05,5.94 598.40,-0.00,5.93"/>
    </edge>
    <edge id=":AG0_8" function="internal">
        <lane id=":AG0_8_0" index="0" speed="3.65" length="2.34" shape="592.80,-1.60,5.96 594.00,-0.80,5.96 594.40,0.00,5.96"/>
    </edge>
    <edge id=":AG0_10" function="internal">
        <lane id=":AG0_10_0" index="0" speed="8.00" length="8.26" shape="598.40,-0.00,5.93 599.40,0.60,5.93 601.05,3.35,5.91 601.60,7.20,5.89"/>
    </edge>
    <edge id=":AG0_11" function="internal">
        <lane id=":AG0_11_0" index="0" speed="3.65" length="2.34" shape="594.40,0.00,5.96 594.00,0.80,5.96 592.80,1.60,5.96"/>
    </edge>
    <edge id=":AG1_0" function="internal">
        <lane id=":AG1_0_0" index="0" speed="100.00" length="14.40" shape="607.20,101.60,7.03 592.80,101.60,6.89"/>
    </edge>
    <edge id=":AG1_1" function="internal">
        <lane id=":AG1_1_0" index="0" speed="8.00" length="5.93" shape="607.20,101.60,7.03 603.35,101.05,7.00 601.60,100.00,6.99"/>
    </edge>
    <edge id=":AG1_2" function="internal">
        <lane id=":AG1_2_0" index="0" speed="3.65" length="2.34" shape="607.20,101.60,7.03 606.00,100.80,7.03 605.60,100.00,7.03"/>
    </edge>
    <edge id=":AG1_9" function="internal">
        <lane id=":AG1_9_0" index="0" speed="8.00" length="8.26" shape="601.60,100.00,6.99 600.60,99.40,6.98 598.95,96.65,6.96 598.40,92.80,6.94"/>
    </edge>
    <edge id=":AG1_10" function="internal">
        <lane id=":AG1_10_0" index="0" speed="3.65" length="2.34" shape="605.60,100.00,7.03 606.00,99.20,7.03 607.20,98.40,7.03"/>
    </edge>
    <edge id=":AG1_3" function="internal">
        <lane id=":AG1_3_0" index="0" speed="6.51" length="9.03" shape="601.60,92.80,6.94 601.95,95.25,6.96 603.00,97.00,6.98 604.75,98.05,7.00 607.20,98.40,7.03"/>
    </edge>
    <edge id=":AG1_4" function="internal">
        <lane id=":AG1_4_0" index="0" speed="8.00" length="14.19" shape="601.60,92.80,6.94 601.05,96.65,6.92 599.40,99.40,6.91 596.65,101.05,6.90 592.80,101.60,6.89"/>
    </edge>
    <edge id=":AG1_5" function="internal">
        <lane id=":AG1_5_0" index="0" speed="3.65" length="4.67" shape="601.60,92.80,6.94 600.80,94.00,6.94 600.00,94.40,6.94 599.20,94.00,6.94 598.40,92.80,6.94"/>
    </edge>
    <edge id=":AG1_6" function="internal">
        <lane id=":AG1_6_0" index="0" speed="6.51" length="9.03" shape="592.80,98.40,6.89 595.25,98.05,6.90 597.00,97.00,6.91 598.05,95.25,6.92 598.40,92.80,6.94"/>
    </edge>
    <edge id=":AG1_7" function="internal">
        <lane id=":AG1_7_0" index="0" speed="100.00" length="14.40" shape="592.80,98.40,6.89 607.20,98.40,7.03"/>
    </edge>
    <edge id=":AG1_8" function="internal">
        <lane id=":AG1_8_0" index="0" speed="3.65" length="2.34" shape="592.80,98.40,6.89 594.00,99.20,6.89 594.40,100.00,6.89"/>
    </edge>
    <edge id=":AG1_11" function="internal">