<?xml version="1.0" encoding="UTF-8"?>

<!-- generated on 07/22/20 22:23:39 by Eclipse SUMO netgenerate Version 1.5.0
<configuration xmlns:xsi="http://www.w3.org/2001/XMLSchema-instance" xsi:noNamespaceSchemaLocation="http://sumo.dlr.de/xsd/netgenerateConfiguration.xsd">

    <grid_network>
        <grid value="true"/>
        <grid.x-number value="20"/>
        <grid.y-number value="2"/>
    </grid_network>

    <output>
        <output-file value="2.net.xml"/>
    </output>

    <processing>
        <perturb-x value="23"/>
        <perturb-z value="100"/>
    </processing>

    <random_number>
        <seed value="9726976"/>
    </random_number>

</configuration>
-->

<net version="1.3" junctionCornerDetail="5" limitTurnSpeed="5.50" xmlns:xsi="http://www.w3.org/2001/XMLSchema-instance" xsi:noNamespaceSchemaLocation="http://sumo.dlr.de/xsd/net_file.xsd">

    <location netOffset="-1.30,0.00" convBoundary="0.00,0.00,1918.41,100.00" origBoundary="1.30,0.00,1919.71,100.00" projParameter="!"/>

    <edge id=":A0_0" function="internal">
        <lane id=":A0_0_0" index="0" speed="6.07" length="8.64" shape="-1.43,3.44,79.59 -1.23,1.23,80.48 -0.36,-0.34,81.20 1.17,-1.29,81.92 3.36,-1.60,82.81"/>
    </edge>
    <edge id=":A0_1" function="internal">
        <lane id=":A0_1_0" index="0" speed="3.90" length="4.19" shape="3.36,1.60,82.81 2.63,1.70,81.92 2.12,2.02,81.20 1.83,2.54,80.48 1.76,3.28,79.59"/>
    </edge>
    <edge id=":A1_0" function="internal">
        <lane id=":A1_0_0" index="0" speed="6.08" length="8.46" shape="7.99,101.60,-12.27 5.98,101.31,-11.19 4.51,100.46,-10.29 3.58,99.03,-9.38 3.20,97.04,-8.30"/>
    </edge>
    <edge id=":A1_1" function="internal">
        <lane id=":A1_1_0" index="0" speed="3.91" length="4.63" shape="6.40,96.88,-8.30 6.52,97.54,-9.36 6.83,98.02,-10.25 7.32,98.30,-11.14 7.99,98.40,-12.20"/>
    </edge>
    <edge id=":B0_0" function="internal">
        <lane id=":B0_0_0" index="0" speed="7.07" length="9.74" shape="113.22,7.80,85.01 112.52,5.09,84.97 111.25,3.15,84.93 109.41,1.99,84.90 106.99,1.60,84.87"/>
    </edge>
    <edge id=":B0_1" function="internal">
        <lane id=":B0_1_0" index="0" speed="7.78" length="14.72" shape="113.22,7.80,85.01 113.27,3.69,85.01 114.65,0.75,85.01 117.38,-1.01,85.01 121.45,-1.60,85.01"/>
    </edge>
    <edge id=":B0_2" function="internal">
        <lane id=":B0_2_0" index="0" speed="3.65" length="4.67" shape="113.22,7.80,85.01 113.86,6.51,85.01 114.60,6.00,85.01 115.44,6.29,85.01 116.39,7.38,85.01"/>
    </edge>
    <edge id=":B0_3" function="internal">
        <lane id=":B0_3_0" index="0" speed="6.24" length="9.05" shape="121.45,1.60,85.01 118.95,1.96,85.01 117.27,3.04,85.01 116.42,4.85,85.01 116.39,7.38,85.01"/>
    </edge>
    <edge id=":B0_4" function="internal">
        <lane id=":B0_4_0" index="0" speed="13.89" length="14.46" shape="121.45,1.60,85.01 106.99,1.60,84.87"/>
    </edge>
    <edge id=":B0_5" function="internal">
        <lane id=":B0_5_0" index="0" speed="3.65" length="2.34" shape="121.45,1.60,85.01 120.25,0.80,85.01 119.85,0.00,85.01"/>
    </edge>
    <edge id=":B0_9" function="internal">
        <lane id=":B0_9_0" index="0" speed="3.65" length="2.34" shape="119.85,0.00,85.01 120.25,-0.80,85.01 121.45,-1.60,85.01"/>
    </edge>
    <edge id=":B0_6" function="internal">
        <lane id=":B0_6_0" index="0" speed="13.89" length="14.46" shape="106.99,-1.60,84.87 121.45,-1.60,85.01"/>
    </edge>
    <edge id=":B0_7" function="internal">
        <lane id=":B0_7_0" index="0" speed="8.48" length="5.72" shape="106.99,-1.60,84.87 110.66,-1.04,84.91 112.38,-0.00,84.92"/>
    </edge>
    <edge id=":B0_8" function="internal">
        <lane id=":B0_8_0" index="0" speed="3.65" length="2.34" shape="106.99,-1.60,84.87 108.19,-0.80,84.87 108.59,0.00,84.87"/>
    </edge>
    <edge id=":B0_10" function="internal">
        <lane id=":B0_10_0" index="0" speed="8.48" length="8.70" shape="112.38,-0.00,84.92 113.44,0.64,84.94 115.36,3.45,84.97 116.39,7.38,85.01"/>
    </edge>
    <edge id=":B0_11" function="internal">
        <lane id=":B0_11_0" index="0" speed="3.65" length="2.34" shape="108.59,0.00,84.87 108.19,0.80,84.87 106.99,1.60,84.87"/>
    </edge>
    <edge id=":B1_0" function="internal">
        <lane id=":B1_0_0" index="0" speed="13.89" length="14.46" shape="133.96,101.60,-52.99 119.50,101.60,-52.99"/>
    </edge>
    <edge id=":B1_1" function="internal">
        <lane id=":B1_1_0" index="0" speed="8.48" length="5.72" shape="133.96,101.60,-52.99 130.30,101.04,-52.99 128.58,100.00,-52.99"/>
    </edge>
    <edge id=":B1_2" function="internal">
        <lane id=":B1_2_0" index="0" speed="3.65" length="2.34" shape="133.96,101.60,-52.99 132.76,100.80,-52.99 132.36,100.00,-52.99"/>
    </edge>
    <edge id=":B1_9" function="internal">
        <lane id=":B1_9_0" index="0" speed="8.48" length="8.70" shape="128.58,100.00,-52.99 127.51,99.36,-52.99 125.60,96.55,-52.99 124.56,92.62,-52.99"/>
    </edge>
    <edge id=":B1_10" function="internal">
        <lane id=":B1_10_0" index="0" speed="3.65" length="2.34" shape="132.36,100.00,-52.99 132.76,99.20,-52.99 133.96,98.40,-52.99"/>
    </edge>
    <edge id=":B1_3" function="internal">
        <lane id=":B1_3_0" index="0" speed="7.07" length="9.74" shape="127.73,92.20,-52.99 128.43,94.91,-52.99 129.70,96.85,-52.99 131.55,98.01,-52.99 133.96,98.40,-52.99"/>
    </edge>
    <edge id=":B1_4" function="internal">
        <lane id=":B1_4_0" index="0" speed="7.78" length="14.72" shape="127.73,92.20,-52.99 127.69,96.31,-52.99 126.30,99.25,-52.99 123.57,101.01,-52.99 119.50,101.60,-52.99"/>
    </edge>
    <edge id=":B1_5" function="internal">
        <lane id=":B1_5_0" index="0" speed="3.65" length="4.67" shape="127.73,92.20,-52.99 127.10,93.49,-52.99 126.36,94.00,-52.99 125.51,93.71,-52.99 124.56,92.62,-52.99"/>
    </edge>
    <edge id=":B1_6" function="internal">
        <lane id=":B1_6_0" index="0" speed="6.24" length="9.05" shape="119.50,98.40,-52.99 122.01,98.04,-52.99 123.68,96.96,-52.99 124.53,95.15,-52.99 124.56,92.62,-52.99"/>
    </edge>
    <edge id=":B1_7" function="internal">
        <lane id=":B1_7_0" index="0" speed="13.89" length="14.46" shape="119.50,98.40,-52.99 133.96,98.40,-52.99"/>
    </edge>
    <edge id=":B1_8" function="internal">
        <lane id=":B1_8_0" index="0" speed="3.65" length="2.34" shape="119.50,98.40,-52.99 120.70,99.20,-52.99 121.10,100.00,-52.99"/>
    </edge>
    <edge id=":B1_11" function="internal">
        <lane id=":B1_11_0" index="0" speed="3.65" length="2.34" shape="121.10,100.00,-52.99 120.70,100.80,-52.99 119.50,101.60,-52.99"/>
    </edge>
    <edge id=":C0_0" function="internal">
        <lane id=":C0_0_0" index="0" speed="8.03" length="10.86" shape="175.12,8.49,67.26 173.81,5.48,67.26 172.14,3.32,67.26 170.11,2.03,67.26 167.71,1.60,67.26"/>
    </edge>
    <edge id=":C0_1" function="internal">
        <lane id=":C0_1_0" index="0" speed="7.56" length="15.56" shape="175.12,8.49,67.26 174.34,4.08,67.26 175.30,0.92,67.26 178.00,-0.97,67.26 182.44,-1.60,67.26"/>
    </edge>
    <edge id=":C0_2" function="internal">
        <lane id=":C0_2_0" index="0" speed="3.65" length="4.67" shape="175.12,8.49,67.26 175.51,7.10,67.26 176.14,6.47,67.26 177.03,6.61,67.26 178.16,7.50,67.26"/>
    </edge>
    <edge id=":C0_3" function="internal">
        <lane id=":C0_3_0" index="0" speed="5.93" length="9.10" shape="182.44,1.60,67.26 179.85,1.97,67.26 178.27,3.07,67.26 177.71,4.92,67.26 178.16,7.50,67.26"/>
    </edge>
    <edge id=":C0_4" function="internal">
        <lane id=":C0_4_0" index="0" speed="13.89" length="14.73" shape="182.44,1.60,67.26 167.71,1.60,67.26"/>
    </edge>
    <edge id=":C0_5" function="internal">
        <lane id=":C0_5_0" index="0" speed="3.65" length="2.34" shape="182.44,1.60,67.26 181.24,0.80,67.26 180.84,0.00,67.26"/>
    </edge>
    <edge id=":C0_9" function="internal">
        <lane id=":C0_9_0" index="0" speed="3.65" length="2.34" shape="180.84,0.00,67.26 181.24,-0.80,67.26 182.44,-1.60,67.26"/>
    </edge>
    <edge id=":C0_6" function="internal">
        <lane id=":C0_6_0" index="0" speed="13.89" length="14.73" shape="167.71,-1.60,67.26 182.44,-1.60,67.26"/>
    </edge>
    <edge id=":C0_7" function="internal">
        <lane id=":C0_7_0" index="0" speed="9.32" length="5.54" shape="167.71,-1.60,67.26 171.17,-1.03,67.26 172.92,-0.00,67.26"/>
    </edge>
    <edge id=":C0_8" function="internal">
        <lane id=":C0_8_0" index="0" speed="3.65" length="2.34" shape="167.71,-1.60,67.26 168.91,-0.80,67.26 169.31,0.00,67.26"/>
    </edge>
    <edge id=":C0_10" function="internal">
        <lane id=":C0_10_0" index="0" speed="9.32" length="9.36" shape="172.92,-0.00,67.26 174.06,0.67,67.26 176.39,3.52,67.26 178.16,7.50,67.26"/>
    </edge>
    <edge id=":C0_11" function="internal">
        <lane id=":C0_11_0" index="0" speed="3.65" length="2.34" shape="169.31,0.00,67.26 168.91,0.80,67.26 167.71,1.60,67.26"/>
    </edge>
    <edge id=":C1_0" function="internal">
        <lane id=":C1_0_0" index="0" speed="13.89" length="14.73" shape="213.01,101.60,-60.10 198.28,101.60,-60.10"/>
    </edge>
    <edge id=":C1_1" function="internal">
        <lane id=":C1_1_0" index="0" speed="9.32" length="5.54" shape="213.01,101.60,-60.10 209.55,101.03,-60.10 207.80,100.00,-60.10"/>
    </edge>
    <edge id=":C1_2" function="internal">
        <lane id=":C1_2_0" index="0" speed="3.65" length="2.34" shape="213.01,101.60,-60.10 211.81,100.80,-60.10 211.41,100.00,-60.10"/>
    </edge>
    <edge id=":C1_9" function="internal">
        <lane id=":C1_9_0" index="0" speed="9.32" length="9.36" shape="207.80,100.00,-60.10 206.65,99.33,-60.10 204.32,96.48,-60.10 202.56,92.50,-60.10"/>
    </edge>
    <edge id=":C1_10" function="internal">
        <lane id=":C1_10_0" index="0" speed="3.65" length="2.34" shape="211.41,100.00,-60.10 211.81,99.20,-60.10 213.01,98.40,-60.10"/>
    </edge>
    <edge id=":C1_3" function="internal">
        <lane id=":C1_3_0" index="0" speed="8.03" length="10.86" shape="205.60,91.51,-60.10 206.90,94.52,-60.10 208.58,96.68,-60.10 210.61,97.97,-60.10 213.01,98.40,-60.10"/>
    </edge>
    <edge id=":C1_4" function="internal">
        <lane id=":C1_4_0" index="0" speed="7.56" length="15.56" shape="205.60,91.51,-60.10 206.38,95.92,-60.10 205.41,99.08,-60.10 202.72,100.97,-60.10 198.28,101.60,-60.10"/>
    </edge>
    <edge id=":C1_5" function="internal">
        <lane id=":C1_5_0" index="0" speed="3.65" length="4.67" shape="205.60,91.51,-60.10 205.21,92.90,-60.10 204.57,93.53,-60.10 203.69,93.39,-60.10 202.56,92.50,-60.10"/>
    </edge>
    <edge id=":C1_6" function="internal">
        <lane id=":C1_6_0" index="0" speed="5.93" length="9.10" shape="198.28,98.40,-60.10 200.87,98.03,-60.10 202.45,96.93,-60.10 203.01,95.08,-60.10 202.56,92.50,-60.10"/>
    </edge>
    <edge id=":C1_7" function="internal">
        <lane id=":C1_7_0" index="0" speed="13.89" length="14.73" shape="198.28,98.40,-60.10 213.01,98.40,-60.10"/>
    </edge>
    <edge id=":C1_8" function="internal">
        <lane id=":C1_8_0" index="0" speed="3.65" length="2.34" shape="198.28,98.40,-60.10 199.48,99.20,-60.10 199.88,100.00,-60.10"/>
    </edge>
    <edge id=":C1_11" function="internal">
        <lane id=":C1_11_0" index="0" speed="3.65" length="2.34" shape="199.88,100.00,-60.10 199.48,100.80,-60.10 198.28,101.60,-60.10"/>
    </edge>
    <edge id=":D0_0" function="internal">
        <lane id=":D0_0_0" index="0" speed="7.31" length="10.03" shape="291.26,8.01,-125.20 290.40,5.20,-125.20 289.03,3.20,-125.20 287.15,2.00,-125.20 284.74,1.60,-125.20"/>
    </edge>
    <edge id=":D0_1" function="internal">
        <lane id=":D0_1_0" index="0" speed="7.71" length="14.94" shape="291.26,8.01,-125.20 291.09,3.80,-125.20 292.37,0.80,-125.20 295.08,-1.00,-125.20 299.25,-1.60,-125.20"/>
    </edge>
    <edge id=":D0_2" function="internal">
        <lane id=":D0_2_0" index="0" speed="3.65" length="4.67" shape="291.26,8.01,-125.20 291.82,6.68,-125.20 292.54,6.14,-125.20 293.40,6.39,-125.20 294.40,7.42,-125.20"/>
    </edge>
    <edge id=":D0_3" function="internal">
        <lane id=":D0_3_0" index="0" speed="6.15" length="9.06" shape="299.25,1.60,-125.20 296.72,1.96,-125.20 295.07,3.06,-125.20 294.30,4.88,-125.20 294.40,7.42,-125.20"/>
    </edge>
    <edge id=":D0_4" function="internal">
        <lane id=":D0_4_0" index="0" speed="13.89" length="14.51" shape="299.25,1.60,-125.20 284.74,1.60,-125.20"/>
    </edge>
    <edge id=":D0_5" function="internal">
        <lane id=":D0_5_0" index="0" speed="3.65" length="2.34" shape="299.25,1.60,-125.20 298.05,0.80,-125.20 297.65,0.00,-125.20"/>
    </edge>
    <edge id=":D0_9" function="internal">
        <lane id=":D0_9_0" index="0" speed="3.65" length="2.34" shape="297.65,0.00,-125.20 298.05,-0.80,-125.20 299.25,-1.60,-125.20"/>
    </edge>
    <edge id=":D0_6" function="internal">
        <lane id=":D0_6_0" index="0" speed="13.89" length="14.51" shape="284.74,-1.60,-125.20 299.25,-1.60,-125.20"/>
    </edge>
    <edge id=":D0_7" function="internal">
        <lane id=":D0_7_0" index="0" speed="8.68" length="5.65" shape="284.74,-1.60,-125.20 288.34,-1.04,-125.20 290.06,-0.00,-125.20"/>
    </edge>
    <edge id=":D0_8" function="internal">
        <lane id=":D0_8_0" index="0" speed="3.65" length="2.34" shape="284.74,-1.60,-125.20 285.94,-0.80,-125.20 286.34,0.00,-125.20"/>
    </edge>
    <edge id=":D0_10" function="internal">
        <lane id=":D0_10_0" index="0" speed="8.68" length="8.88" shape="290.06,-0.00,-125.20 291.15,0.66,-125.20 293.17,3.48,-125.20 294.40,7.42,-125.20"/>
    </edge>
    <edge id=":D0_11" function="internal">
        <lane id=":D0_11_0" index="0" speed="3.65" length="2.34" shape="286.34,0.00,-125.20 285.94,0.80,-125.20 284.74,1.60,-125.20"/>
    </edge>
    <edge id=":D1_0" function="internal">
        <lane id=":D1_0_0" index="0" speed="13.89" length="14.51" shape="316.56,101.60,-38.45 302.06,101.60,-38.45"/>
    </edge>
    <edge id=":D1_1" function="internal">
        <lane id=":D1_1_0" index="0" speed="8.68" length="5.65" shape="316.56,101.60,-38.45 312.96,101.04,-38.45 311.24,100.00,-38.45"/>
    </edge>
    <edge id=":D1_2" function="internal">
        <lane id=":D1_2_0" index="0" speed="3.65" length="2.34" shape="316.56,101.60,-38.45 315.36,100.80,-38.45 314.96,100.00,-38.45"/>
    </edge>
    <edge id=":D1_9" function="internal">
        <lane id=":D1_9_0" index="0" speed="8.68" length="8.88" shape="311.24,100.00,-38.45 310.15,99.34,-38.45 308.13,96.52,-38.45 306.90,92.58,-38.45"/>
    </edge>
    <edge id=":D1_10" function="internal">
        <lane id=":D1_10_0" index="0" speed="3.65" length="2.34" shape="314.96,100.00,-38.45 315.36,99.20,-38.45 316.56,98.40,-38.45"/>
    </edge>
    <edge id=":D1_3" function="internal">
        <lane id=":D1_3_0" index="0" speed="7.31" length="10.03" shape="310.05,91.99,-38.45 310.90,94.80,-38.45 312.27,96.80,-38.45 314.16,98.00,-38.45 316.56,98.40,-38.45"/>
    </edge>
    <edge id=":D1_4" function="internal">
        <lane id=":D1_4_0" index="0" speed="7.71" length="14.94" shape="310.05,91.99,-38.45 310.22,96.20,-38.45 308.94,99.20,-38.45 306.22,101.00,-38.45 302.06,101.60,-38.45"/>
    </edge>
    <edge id=":D1_5" function="internal">
        <lane id=":D1_5_0" index="0" speed="3.65" length="4.67" shape="310.05,91.99,-38.45 309.48,93.32,-38.45 308.77,93.86,-38.45 307.91,93.61,-38.45 306.90,92.58,-38.45"/>
    </edge>
    <edge id=":D1_6" function="internal">
        <lane id=":D1_6_0" index="0" speed="6.15" length="9.06" shape="302.06,98.40,-38.45 304.58,98.04,-38.45 306.23,96.94,-38.45 307.00,95.12,-38.45 306.90,92.58,-38.45"/>
    </edge>
    <edge id=":D1_7" function="internal">
        <lane id=":D1_7_0" index="0" speed="13.89" length="14.51" shape="302.06,98.40,-38.45 316.56,98.40,-38.45"/>
    </edge>
    <edge id=":D1_8" function="internal">
        <lane id=":D1_8_0" index="0" speed="3.65" length="2.34" shape="302.06,98.40,-38.45 303.26,99.20,-38.45 303.66,100.00,-38.45"/>
    </edge>
    <edge id=":D1_11" function="internal">
        <lane id=":D1_11_0" index="0" speed="3.65" length="2.34" shape="303.66,100.00,-38.45 303.26,100.80,-38.45 302.06,101.60,-38.45"/>
    </edge>
    <edge id=":E0_0" function="internal">
        <lane id=":E0_0_0" index="0" speed="6.69" length="9.27" shape="395.28,7.41,-17.32 394.82,4.87,-17.32 393.70,3.05,-17.32 391.92,1.96,-17.32 389.48,1.60,-17.32"/>
    </edge>
    <edge id=":E0_1" function="internal">
        <lane id=":E0_1_0" index="0" speed="7.92" length="14.37" shape="395.28,7.41,-17.32 395.66,3.47,-17.32 397.23,0.65,-17.32 399.97,-1.04,-17.32 403.89,-1.60,-17.32"/>
    </edge>
    <edge id=":E0_2" function="internal">
        <lane id=":E0_2_0" index="0" speed="3.65" length="4.67" shape="395.28,7.41,-17.32 396.02,6.18,-17.32 396.80,5.74,-17.32 397.62,6.11,-17.32 398.47,7.27,-17.32"/>
    </edge>
    <edge id=":E0_3" function="internal">
        <lane id=":E0_3_0" index="0" speed="6.41" length="9.04" shape="403.89,1.60,-17.32 401.42,1.95,-17.32 399.70,3.02,-17.32 398.72,4.79,-17.32 398.47,7.27,-17.32"/>
    </edge>
    <edge id=":E0_4" function="internal">
        <lane id=":E0_4_0" index="0" speed="13.89" length="14.41" shape="403.89,1.60,-17.32 389.48,1.60,-17.32"/>
    </edge>
    <edge id=":E0_5" function="internal">
        <lane id=":E0_5_0" index="0" speed="3.65" length="2.34" shape="403.89,1.60,-17.32 402.69,0.80,-17.32 402.29,0.00,-17.32"/>
    </edge>
    <edge id=":E0_9" function="internal">
        <lane id=":E0_9_0" index="0" speed="3.65" length="2.34" shape="402.29,0.00,-17.32 402.69,-0.80,-17.32 403.89,-1.60,-17.32"/>
    </edge>
    <edge id=":E0_6" function="internal">
        <lane id=":E0_6_0" index="0" speed="13.89" length="14.41" shape="389.48,-1.60,-17.32 403.89,-1.60,-17.32"/>
    </edge>
    <edge id=":E0_7" function="internal">
        <lane id=":E0_7_0" index="0" speed="8.15" length="5.85" shape="389.48,-1.60,-17.32 393.27,-1.05,-17.32 395.00,-0.00,-17.32"/>
    </edge>
    <edge id=":E0_8" function="internal">
        <lane id=":E0_8_0" index="0" speed="3.65" length="2.34" shape="389.48,-1.60,-17.32 390.68,-0.80,-17.32 391.08,0.00,-17.32"/>
    </edge>
    <edge id=":E0_10" function="internal">
        <lane id=":E0_10_0" index="0" speed="8.15" length="8.41" shape="395.00,-0.00,-17.32 396.02,0.62,-17.32 397.76,3.39,-17.32 398.47,7.27,-17.32"/>
    </edge>
    <edge id=":E0_11" function="internal">
        <lane id=":E0_11_0" index="0" speed="3.65" length="2.34" shape="391.08,0.00,-17.32 390.68,0.80,-17.32 389.48,1.60,-17.32"/>
    </edge>
    <edge id=":E1_0" function="internal">
        <lane id=":E1_0_0" index="0" speed="13.89" length="14.41" shape="408.16,101.60,-78.64 393.75,101.60,-78.64"/>
    </edge>
    <edge id=":E1_1" function="internal">
        <lane id=":E1_1_0" index="0" speed="8.15" length="5.85" shape="408.16,101.60,-78.64 404.38,101.05,-78.64 402.64,100.00,-78.64"/>
    </edge>
    <edge id=":E1_2" function="internal">
        <lane id=":E1_2_0" index="0" speed="3.65" length="2.34" shape="408.16,101.60,-78.64 406.96,100.80,-78.64 406.56,100.00,-78.64"/>
    </edge>
    <edge id=":E1_9" function="internal">
        <lane id=":E1_9_0" index="0" speed="8.15" length="8.41" shape="402.64,100.00,-78.64 401.62,99.38,-78.64 399.88,96.61,-78.64 399.17,92.73,-78.64"/>
    </edge>
    <edge id=":E1_10" function="internal">
        <lane id=":E1_10_0" index="0" speed="3.65" length="2.34" shape="406.56,100.00,-78.64 406.96,99.20,-78.64 408.16,98.40,-78.64"/>
    </edge>
    <edge id=":E1_3" function="internal">
        <lane id=":E1_3_0" index="0" speed="6.69" length="9.27" shape="402.36,92.59,-78.64 402.83,95.13,-78.64 403.94,96.95,-78.64 405.72,98.04,-78.64 408.16,98.40,-78.64"/>
    </edge>
    <edge id=":E1_4" function="internal">
        <lane id=":E1_4_0" index="0" speed="7.92" length="14.37" shape="402.36,92.59,-78.64 401.98,96.53,-78.64 400.42,99.35,-78.64 397.67,101.04,-78.64 393.75,101.60,-78.64"/>
    </edge>
    <edge id=":E1_5" function="internal">
        <lane id=":E1_5_0" index="0" speed="3.65" length="4.67" shape="402.36,92.59,-78.64 401.62,93.82,-78.64 400.84,94.26,-78.64 400.02,93.89,-78.64 399.17,92.73,-78.64"/>
    </edge>
    <edge id=":E1_6" function="internal">
        <lane id=":E1_6_0" index="0" speed="6.41" length="9.04" shape="393.75,98.40,-78.64 396.22,98.05,-78.64 397.94,96.98,-78.64 398.93,95.21,-78.64 399.17,92.73,-78.64"/>
    </edge>
    <edge id=":E1_7" function="internal">
        <lane id=":E1_7_0" index="0" speed="13.89" length="14.41" shape="393.75,98.40,-78.64 408.16,98.40,-78.64"/>
    </edge>
    <edge id=":E1_8" function="internal">
        <lane id=":E1_8_0" index="0" speed="3.65" length="2.34" shape="393.75,98.40,-78.64 394.95,99.20,-78.64 395.35,100.00,-78.64"/>
    </edge>
    <edge id=":E1_11" function="internal">
        <lane id=":E1_11_0" index="0" speed="3.65" length="2.34" shape="395.35,100.00,-78.64 394.95,100.80,-78.64 393.75,101.60,-78.64"/>
    </edge>
    <edge id=":F0_0" function="internal">
        <lane id=":F0_0_0" index="0" speed="7.09" length="9.77" shape="483.08,7.82,-70.30 482.36,5.10,-70.30 481.08,3.16,-70.30 479.23,1.99,-70.30 476.82,1.60,-70.30"/>
    </edge>
    <edge id=":F0_1" function="internal">
        <lane id=":F0_1_0" index="0" speed="7.77" length="14.74" shape="483.08,7.82,-70.30 483.10,3.70,-70.30 484.47,0.76,-70.30 487.20,-1.01,-70.30 491.28,-1.60,-70.30"/>
    </edge>
    <edge id=":F0_2" function="internal">
        <lane id=":F0_2_0" index="0" speed="3.65" length="4.67" shape="483.08,7.82,-70.30 483.70,6.52,-70.30 484.44,6.02,-70.30 485.29,6.30,-70.30 486.25,7.38,-70.30"/>
    </edge>
    <edge id=":F0_3" function="internal">
        <lane id=":F0_3_0" index="0" speed="6.23" length="9.05" shape="491.28,1.60,-70.30 488.78,1.96,-70.30 487.10,3.05,-70.30 486.26,4.85,-70.30 486.25,7.38,-70.30"/>
    </edge>
    <edge id=":F0_4" function="internal">
        <lane id=":F0_4_0" index="0" speed="13.89" length="14.46" shape="491.28,1.60,-70.30 476.82,1.60,-70.30"/>
    </edge>
    <edge id=":F0_5" function="internal">
        <lane id=":F0_5_0" index="0" speed="3.65" length="2.34" shape="491.28,1.60,-70.30 490.08,0.80,-70.30 489.68,0.00,-70.30"/>
    </edge>
    <edge id=":F0_9" function="internal">
        <lane id=":F0_9_0" index="0" speed="3.65" length="2.34" shape="489.68,0.00,-70.30 490.08,-0.80,-70.30 491.28,-1.60,-70.30"/>
    </edge>
    <edge id=":F0_6" function="internal">
        <lane id=":F0_6_0" index="0" speed="13.89" length="14.46" shape="476.82,-1.60,-70.30 491.28,-1.60,-70.30"/>
    </edge>
    <edge id=":F0_7" function="internal">
        <lane id=":F0_7_0" index="0" speed="8.50" length="5.71" shape="476.82,-1.60,-70.30 480.47,-1.04,-70.30 482.20,0.00,-70.30"/>
    </edge>
    <edge id=":F0_8" function="internal">
        <lane id=":F0_8_0" index="0" speed="3.65" length="2.34" shape="476.82,-1.60,-70.30 478.02,-0.80,-70.30 478.42,0.00,-70.30"/>
    </edge>
    <edge id=":F0_10" function="internal">
        <lane id=":F0_10_0" index="0" speed="8.50" length="8.72" shape="482.20,0.00,-70.30 483.26,0.65,-70.30 485.19,3.45,-70.30 486.25,7.38,-70.30"/>
    </edge>
    <edge id=":F0_11" function="internal">
        <lane id=":F0_11_0" index="0" speed="3.65" length="2.34" shape="478.42,0.00,-70.30 478.02,0.80,-70.30 476.82,1.60,-70.30"/>
    </edge>
    <edge id=":F1_0" function="internal">
        <lane id=":F1_0_0" index="0" speed="13.89" length="14.46" shape="504.30,101.60,-46.61 489.84,101.60,-46.61"/>
    </edge>
    <edge id=":F1_1" function="internal">
        <lane id=":F1_1_0" index="0" speed="8.50" length="5.71" shape="504.30,101.60,-46.61 500.65,101.04,-46.61 498.93,100.00,-46.61"/>
    </edge>
    <edge id=":F1_2" function="internal">
        <lane id=":F1_2_0" index="0" speed="3.65" length="2.34" shape="504.30,101.60,-46.61 503.10,100.80,-46.61 502.70,100.00,-46.61"/>
    </edge>
    <edge id=":F1_9" function="internal">
        <lane id=":F1_9_0" index="0" speed="8.50" length="8.72" shape="498.93,100.00,-46.61 497.86,99.35,-46.61 495.93,96.55,-46.61 494.88,92.62,-46.61"/>
    </edge>
    <edge id=":F1_10" function="internal">
        <lane id=":F1_10_0" index="0" speed="3.65" length="2.34" shape="502.70,100.00,-46.61 503.10,99.20,-46.61 504.30,98.40,-46.61"/>
    </edge>
    <edge id=":F1_3" function="internal">
        <lane id=":F1_3_0" index="0" speed="7.09" length="9.77" shape="498.05,92.18,-46.61 498.76,94.90,-46.61 500.04,96.84,-46.61 501.89,98.01,-46.61 504.30,98.40,-46.61"/>
    </edge>
    <edge id=":F1_4" function="internal">
        <lane id=":F1_4_0" index="0" speed="7.77" length="14.74" shape="498.05,92.18,-46.61 498.02,96.30,-46.61 496.65,99.24,-46.61 493.92,101.01,-46.61 489.84,101.60,-46.61"/>
    </edge>
    <edge id=":F1_5" function="internal">
        <lane id=":F1_5_0" index="0" speed="3.65" length="4.67" shape="498.05,92.18,-46.61 497.42,93.48,-46.61 496.68,93.98,-46.61 495.83,93.70,-46.61 494.88,92.62,-46.61"/>
    </edge>
    <edge id=":F1_6" function="internal">
        <lane id=":F1_6_0" index="0" speed="6.23" length="9.05" shape="489.84,98.40,-46.61 492.35,98.04,-46.61 494.02,96.95,-46.61 494.86,95.15,-46.61 494.88,92.62,-46.61"/>
    </edge>
    <edge id=":F1_7" function="internal">
        <lane id=":F1_7_0" index="0" speed="13.89" length="14.46" shape="489.84,98.40,-46.61 504.30,98.40,-46.61"/>
    </edge>
    <edge id=":F1_8" function="internal">
        <lane id=":F1_8_0" index="0" speed="3.65" length="2.34" shape="489.84,98.40,-46.61 491.04,99.20,-46.61 491.44,100.00,-46.61"/>
    </edge>
    <edge id=":F1_11" function="internal">
        <lane id=":F1_11_0" index="0" speed="3.65" length="2.34" shape="491.44,100.00,-46.61 491.04,100.80,-46.61 489.84,101.60,-46.61"/>
    </edge>
    <edge id=":G0_0" function="internal">
        <lane id=":G0_0_0" index="0" speed="7.55" length="10.32" shape="583.88,8.19,-62.07 582.88,5.31,-62.07 581.40,3.25,-62.07 579.47,2.01,-62.07 577.07,1.60,-62.07"/>
    </edge>
    <edge id=":G0_1" function="internal">
        <lane id=":G0_1_0" index="0" speed="7.65" length="15.15" shape="583.88,8.19,-62.07 583.50,3.91,-62.07 584.67,0.85,-62.07 587.38,-0.99,-62.07 591.64,-1.60,-62.07"/>
    </edge>
    <edge id=":G0_2" function="internal">
        <lane id=":G0_2_0" index="0" speed="3.65" length="4.67" shape="583.88,8.19,-62.07 584.39,6.84,-62.07 585.07,6.27,-62.07 585.95,6.48,-62.07 587.00,7.46,-62.07"/>
    </edge>
    <edge id=":G0_3" function="internal">
        <lane id=":G0_3_0" index="0" speed="6.06" length="9.07" shape="591.64,1.60,-62.07 589.09,1.97,-62.07 587.47,3.07,-62.07 586.77,4.90,-62.07 587.00,7.46,-62.07"/>
    </edge>
    <edge id=":G0_4" function="internal">
        <lane id=":G0_4_0" index="0" speed="13.89" length="14.57" shape="591.64,1.60,-62.07 577.07,1.60,-62.07"/>
    </edge>
    <edge id=":G0_5" function="internal">
        <lane id=":G0_5_0" index="0" speed="3.65" length="2.34" shape="591.64,1.60,-62.07 590.44,0.80,-62.07 590.04,0.00,-62.07"/>
    </edge>
    <edge id=":G0_9" function="internal">
        <lane id=":G0_9_0" index="0" speed="3.65" length="2.34" shape="590.04,0.00,-62.07 590.44,-0.80,-62.07 591.64,-1.60,-62.07"/>
    </edge>
    <edge id=":G0_6" function="internal">
        <lane id=":G0_6_0" index="0" speed="13.89" length="14.57" shape="577.07,-1.60,-62.07 591.64,-1.60,-62.07"/>
    </edge>
    <edge id=":G0_7" function="internal">
        <lane id=":G0_7_0" index="0" speed="8.90" length="5.60" shape="577.07,-1.60,-62.07 580.61,-1.03,-62.07 582.34,0.00,-62.07"/>
    </edge>
    <edge id=":G0_8" function="internal">
        <lane id=":G0_8_0" index="0" speed="3.65" length="2.34" shape="577.07,-1.60,-62.07 578.27,-0.80,-62.07 578.67,0.00,-62.07"/>
    </edge>
    <edge id=":G0_10" function="internal">
        <lane id=":G0_10_0" index="0" speed="8.90" length="9.05" shape="582.34,0.00,-62.07 583.45,0.67,-62.07 585.58,3.50,-62.07 587.00,7.46,-62.07"/>
    </edge>
    <edge id=":G0_11" function="internal">
        <lane id=":G0_11_0" index="0" speed="3.65" length="2.34" shape="578.67,0.00,-62.07 578.27,0.80,-62.07 577.07,1.60,-62.07"/>
    </edge>
    <edge id=":G1_0" function="internal">
        <lane id=":G1_0_0" index="0" speed="13.89" length="14.57" shape="613.65,101.60,-137.22 599.08,101.60,-137.22"/>
    </edge>
    <edge id=":G1_1" function="internal">
        <lane id=":G1_1_0" index="0" speed="8.90" length="5.60" shape="613.65,101.60,-137.22 610.10,101.03,-137.22 608.38,100.00,-137.22"/>
    </edge>
    <edge id=":G1_2" function="internal">
        <lane id=":G1_2_0" index="0" speed="3.65" length="2.34" shape="613.65,101.60,-137.22 612.45,100.80,-137.22 612.05,100.00,-137.22"/>
    </edge>
    <edge id=":G1_9" function="internal">
        <lane id=":G1_9_0" index="0" speed="8.90" length="9.05" shape="608.38,100.00,-137.22 607.27,99.33,-137.22 605.14,96.50,-137.22 603.72,92.54,-137.22"/>
    </edge>
    <edge id=":G1_10" function="internal">
        <lane id=":G1_10_0" index="0" speed="3.65" length="2.34" shape="612.05,100.00,-137.22 612.45,99.20,-137.22 613.65,98.40,-137.22"/>
    </edge>
    <edge id=":G1_3" function="internal">
        <lane id=":G1_3_0" index="0" speed="7.55" length="10.32" shape="606.83,91.81,-137.22 607.84,94.69,-137.22 609.31,96.75,-137.22 611.25,97.99,-137.22 613.65,98.40,-137.22"/>
    </edge>
    <edge id=":G1_4" function="internal">
        <lane id=":G1_4_0" index="0" speed="7.65" length="15.15" shape="606.83,91.81,-137.22 607.21,96.09,-137.22 606.05,99.15,-137.22 603.33,100.99,-137.22 599.08,101.60,-137.22"/>
    </edge>
    <edge id=":G1_5" function="internal">
        <lane id=":G1_5_0" index="0" speed="3.65" length="4.67" shape="606.83,91.81,-137.22 606.33,93.16,-137.22 605.64,93.73,-137.22 604.77,93.52,-137.22 603.72,92.54,-137.22"/>
    </edge>
    <edge id=":G1_6" function="internal">