<?xml version="1.0" encoding="UTF-8"?>

<!-- generated on 07/22/20 21:49:13 by Eclipse SUMO netgenerate Version 1.5.0
<configuration xmlns:xsi="http://www.w3.org/2001/XMLSchema-instance" xsi:noNamespaceSchemaLocation="http://sumo.dlr.de/xsd/netgenerateConfiguration.xsd">

    <grid_network>
        <grid value="true"/>
        <grid.x-number value="20"/>
        <grid.y-number value="2"/>
    </grid_network>

    <output>
        <output-file value="2.net.xml"/>
    </output>

    <processing>
        <perturb-x value="40"/>
        <perturb-z value="100"/>
    </processing>

    <random_number>
        <seed value="23452354"/>
    </random_number>

</configuration>
-->

<net version="1.3" junctionCornerDetail="5" limitTurnSpeed="5.50" xmlns:xsi="http://www.w3.org/2001/XMLSchema-instance" xsi:noNamespaceSchemaLocation="http://sumo.dlr.de/xsd/net_file.xsd">

    <location netOffset="26.92,0.00" convBoundary="0.00,0.00,1962.84,100.00" origBoundary="-26.92,0.00,1935.91,100.00" projParameter="!"/>

    <edge id=":A0_0" function="internal">
        <lane id=":A0_0_0" index="0" speed="6.12" length="12.49" shape="0.25,4.97,-186.46 -0.45,2.09,-184.34 0.06,0.04,-182.82 1.78,-1.19,-181.30 4.71,-1.60,-179.17"/>
    </edge>
    <edge id=":A0_1" function="internal">
        <lane id=":A0_1_0" index="0" speed="3.93" length="8.88" shape="4.71,1.60,-178.25 3.73,1.74,-180.64 3.16,2.15,-182.36 2.99,2.83,-184.07 3.22,3.79,-186.46"/>
    </edge>
    <edge id=":A1_0" function="internal">
        <lane id=":A1_0_0" index="0" speed="6.20" length="13.41" shape="41.76,101.60,-64.18 40.26,101.41,-67.36 39.01,100.84,-70.23 38.03,99.89,-73.11 37.30,98.57,-76.29"/>
    </edge>
    <edge id=":A1_1" function="internal">
        <lane id=":A1_1_0" index="0" speed="3.97" length="11.70" shape="40.27,97.39,-76.29 40.52,97.83,-73.26 40.84,98.15,-70.52 41.26,98.34,-67.78 41.76,98.40,-64.75"/>
    </edge>
    <edge id=":B0_0" function="internal">
        <lane id=":B0_0_0" index="0" speed="6.83" length="9.45" shape="99.25,7.57,73.27 98.70,4.96,73.27 97.52,3.09,73.27 95.72,1.97,73.27 93.30,1.60,73.27"/>
    </edge>
    <edge id=":B0_1" function="internal">
        <lane id=":B0_1_0" index="0" speed="7.86" length="14.50" shape="99.25,7.57,73.27 99.50,3.56,73.27 101.00,0.69,73.27 103.74,-1.03,73.27 107.72,-1.60,73.27"/>
    </edge>
    <edge id=":B0_2" function="internal">
        <lane id=":B0_2_0" index="0" speed="3.65" length="4.67" shape="99.25,7.57,73.27 99.95,6.31,73.27 100.72,5.85,73.27 101.55,6.18,73.27 102.44,7.31,73.27"/>
    </edge>
    <edge id=":B0_3" function="internal">
        <lane id=":B0_3_0" index="0" speed="6.34" length="9.04" shape="107.72,1.60,73.27 105.24,1.96,73.27 103.53,3.03,73.27 102.60,4.81,73.27 102.44,7.31,73.27"/>
    </edge>
    <edge id=":B0_4" function="internal">
        <lane id=":B0_4_0" index="0" speed="13.89" length="14.42" shape="107.72,1.60,73.27 93.30,1.60,73.27"/>
    </edge>
    <edge id=":B0_5" function="internal">
        <lane id=":B0_5_0" index="0" speed="3.65" length="2.34" shape="107.72,1.60,73.27 106.52,0.80,73.27 106.12,0.00,73.27"/>
    </edge>
    <edge id=":B0_9" function="internal">
        <lane id=":B0_9_0" index="0" speed="3.65" length="2.34" shape="106.12,0.00,73.27 106.52,-0.80,73.27 107.72,-1.60,73.27"/>
    </edge>
    <edge id=":B0_6" function="internal">
        <lane id=":B0_6_0" index="0" speed="13.89" length="14.42" shape="93.30,-1.60,73.27 107.72,-1.60,73.27"/>
    </edge>
    <edge id=":B0_7" function="internal">
        <lane id=":B0_7_0" index="0" speed="8.27" length="5.79" shape="93.30,-1.60,73.27 97.03,-1.04,73.27 98.76,0.00,73.27"/>
    </edge>
    <edge id=":B0_8" function="internal">
        <lane id=":B0_8_0" index="0" speed="3.65" length="2.34" shape="93.30,-1.60,73.27 94.50,-0.80,73.27 94.90,0.00,73.27"/>
    </edge>
    <edge id=":B0_10" function="internal">
        <lane id=":B0_10_0" index="0" speed="8.27" length="8.52" shape="98.76,0.00,73.27 99.80,0.63,73.27 101.60,3.41,73.27 102.44,7.31,73.27"/>
    </edge>
    <edge id=":B0_11" function="internal">
        <lane id=":B0_11_0" index="0" speed="3.65" length="2.34" shape="94.90,0.00,73.27 94.50,0.80,73.27 93.30,1.60,73.27"/>
    </edge>
    <edge id=":B1_0" function="internal">
        <lane id=":B1_0_0" index="0" speed="13.89" length="14.42" shape="115.20,101.60,215.36 100.77,101.60,215.36"/>
    </edge>
    <edge id=":B1_1" function="internal">
        <lane id=":B1_1_0" index="0" speed="8.27" length="5.79" shape="115.20,101.60,215.36 111.46,101.04,215.36 109.73,100.00,215.36"/>
    </edge>
    <edge id=":B1_2" function="internal">
        <lane id=":B1_2_0" index="0" speed="3.65" length="2.34" shape="115.20,101.60,215.36 114.00,100.80,215.36 113.60,100.00,215.36"/>
    </edge>
    <edge id=":B1_9" function="internal">
        <lane id=":B1_9_0" index="0" speed="8.27" length="8.52" shape="109.73,100.00,215.36 108.69,99.37,215.36 106.89,96.59,215.36 106.05,92.69,215.36"/>
    </edge>
    <edge id=":B1_10" function="internal">
        <lane id=":B1_10_0" index="0" speed="3.65" length="2.34" shape="113.60,100.00,215.36 114.00,99.20,215.36 115.20,98.40,215.36"/>
    </edge>
    <edge id=":B1_3" function="internal">
        <lane id=":B1_3_0" index="0" speed="6.83" length="9.45" shape="109.24,92.43,215.36 109.79,95.04,215.36 110.97,96.91,215.36 112.77,98.03,215.36 115.20,98.40,215.36"/>
    </edge>
    <edge id=":B1_4" function="internal">
        <lane id=":B1_4_0" index="0" speed="7.86" length="14.50" shape="109.24,92.43,215.36 108.99,96.44,215.36 107.49,99.31,215.36 104.75,101.03,215.36 100.77,101.60,215.36"/>
    </edge>
    <edge id=":B1_5" function="internal">
        <lane id=":B1_5_0" index="0" speed="3.65" length="4.67" shape="109.24,92.43,215.36 108.54,93.69,215.36 107.77,94.15,215.36 106.94,93.82,215.36 106.05,92.69,215.36"/>
    </edge>
    <edge id=":B1_6" function="internal">
        <lane id=":B1_6_0" index="0" speed="6.34" length="9.04" shape="100.77,98.40,215.36 103.25,98.04,215.36 104.96,96.97,215.36 105.89,95.19,215.36 106.05,92.69,215.36"/>
    </edge>
    <edge id=":B1_7" function="internal">
        <lane id=":B1_7_0" index="0" speed="13.89" length="14.42" shape="100.77,98.40,215.36 115.20,98.40,215.36"/>
    </edge>
    <edge id=":B1_8" function="internal">
        <lane id=":B1_8_0" index="0" speed="3.65" length="2.34" shape="100.77,98.40,215.36 101.97,99.20,215.36 102.37,100.00,215.36"/>
    </edge>
    <edge id=":B1_11" function="internal">
        <lane id=":B1_11_0" index="0" speed="3.65" length="2.34" shape="102.37,100.00,215.36 101.97,100.80,215.36 100.77,101.60,215.36"/>
    </edge>
    <edge id=":C0_0" function="internal">
        <lane id=":C0_0_0" index="0" speed="7.22" length="9.92" shape="220.13,7.93,-19.14 219.33,5.16,-19.14 218.00,3.18,-19.14 216.13,2.00,-19.14 213.72,1.60,-19.14"/>
    </edge>
    <edge id=":C0_1" function="internal">
        <lane id=":C0_1_0" index="0" speed="7.74" length="14.86" shape="220.13,7.93,-19.14 220.04,3.76,-19.14 221.36,0.78,-19.14 224.08,-1.00,-19.14 228.21,-1.60,-19.14"/>
    </edge>
    <edge id=":C0_2" function="internal">
        <lane id=":C0_2_0" index="0" speed="3.65" length="4.67" shape="220.13,7.93,-19.14 220.72,6.62,-19.14 221.45,6.09,-19.14 222.30,6.35,-19.14 223.29,7.41,-19.14"/>
    </edge>
    <edge id=":C0_3" function="internal">
        <lane id=":C0_3_0" index="0" speed="6.18" length="9.05" shape="228.21,1.60,-19.14 225.69,1.96,-19.14 224.04,3.05,-19.14 223.23,4.87,-19.14 223.29,7.41,-19.14"/>
    </edge>
    <edge id=":C0_4" function="internal">
        <lane id=":C0_4_0" index="0" speed="13.89" length="14.49" shape="228.21,1.60,-19.14 213.72,1.60,-19.14"/>
    </edge>
    <edge id=":C0_5" function="internal">
        <lane id=":C0_5_0" index="0" speed="3.65" length="2.34" shape="228.21,1.60,-19.14 227.01,0.80,-19.14 226.61,0.00,-19.14"/>
    </edge>
    <edge id=":C0_9" function="internal">
        <lane id=":C0_9_0" index="0" speed="3.65" length="2.34" shape="226.61,0.00,-19.14 227.01,-0.80,-19.14 228.21,-1.60,-19.14"/>
    </edge>
    <edge id=":C0_6" function="internal">
        <lane id=":C0_6_0" index="0" speed="13.89" length="14.49" shape="213.72,-1.60,-19.14 228.21,-1.60,-19.14"/>
    </edge>
    <edge id=":C0_7" function="internal">
        <lane id=":C0_7_0" index="0" speed="8.60" length="5.68" shape="213.72,-1.60,-19.14 217.35,-1.04,-19.14 219.07,0.00,-19.14"/>
    </edge>
    <edge id=":C0_8" function="internal">
        <lane id=":C0_8_0" index="0" speed="3.65" length="2.34" shape="213.72,-1.60,-19.14 214.92,-0.80,-19.14 215.32,0.00,-19.14"/>
    </edge>
    <edge id=":C0_10" function="internal">
        <lane id=":C0_10_0" index="0" speed="8.60" length="8.81" shape="219.07,0.00,-19.14 220.15,0.65,-19.14 222.13,3.47,-19.14 223.29,7.41,-19.14"/>
    </edge>
    <edge id=":C0_11" function="internal">
        <lane id=":C0_11_0" index="0" speed="3.65" length="2.34" shape="215.32,0.00,-19.14 214.92,0.80,-19.14 213.72,1.60,-19.14"/>
    </edge>
    <edge id=":C1_0" function="internal">
        <lane id=":C1_0_0" index="0" speed="13.89" length="14.49" shape="243.73,101.60,-1.15 229.24,101.60,-1.15"/>
    </edge>
    <edge id=":C1_1" function="internal">
        <lane id=":C1_1_0" index="0" speed="8.60" length="5.68" shape="243.73,101.60,-1.15 240.10,101.04,-1.15 238.38,100.00,-1.15"/>
    </edge>
    <edge id=":C1_2" function="internal">
        <lane id=":C1_2_0" index="0" speed="3.65" length="2.34" shape="243.73,101.60,-1.15 242.53,100.80,-1.15 242.13,100.00,-1.15"/>
    </edge>
    <edge id=":C1_9" function="internal">
        <lane id=":C1_9_0" index="0" speed="8.60" length="8.81" shape="238.38,100.00,-1.15 237.30,99.35,-1.15 235.32,96.53,-1.15 234.17,92.59,-1.15"/>
    </edge>
    <edge id=":C1_10" function="internal">
        <lane id=":C1_10_0" index="0" speed="3.65" length="2.34" shape="242.13,100.00,-1.15 242.53,99.20,-1.15 243.73,98.40,-1.15"/>
    </edge>
    <edge id=":C1_3" function="internal">
        <lane id=":C1_3_0" index="0" speed="7.22" length="9.92" shape="237.32,92.07,-1.15 238.12,94.84,-1.15 239.45,96.82,-1.15 241.32,98.00,-1.15 243.73,98.40,-1.15"/>
    </edge>
    <edge id=":C1_4" function="internal">
        <lane id=":C1_4_0" index="0" speed="7.74" length="14.86" shape="237.32,92.07,-1.15 237.41,96.24,-1.15 236.09,99.22,-1.15 233.37,101.00,-1.15 229.24,101.60,-1.15"/>
    </edge>
    <edge id=":C1_5" function="internal">
        <lane id=":C1_5_0" index="0" speed="3.65" length="4.67" shape="237.32,92.07,-1.15 236.73,93.38,-1.15 236.01,93.91,-1.15 235.15,93.65,-1.15 234.17,92.59,-1.15"/>
    </edge>
    <edge id=":C1_6" function="internal">
        <lane id=":C1_6_0" index="0" speed="6.18" length="9.05" shape="229.24,98.40,-1.15 231.76,98.04,-1.15 233.42,96.95,-1.15 234.22,95.13,-1.15 234.17,92.59,-1.15"/>
    </edge>
    <edge id=":C1_7" function="internal">
        <lane id=":C1_7_0" index="0" speed="13.89" length="14.49" shape="229.24,98.40,-1.15 243.73,98.40,-1.15"/>
    </edge>
    <edge id=":C1_8" function="internal">
        <lane id=":C1_8_0" index="0" speed="3.65" length="2.34" shape="229.24,98.40,-1.15 230.44,99.20,-1.15 230.84,100.00,-1.15"/>
    </edge>
    <edge id=":C1_11" function="internal">
        <lane id=":C1_11_0" index="0" speed="3.65" length="2.34" shape="230.84,100.00,-1.15 230.44,100.80,-1.15 229.24,101.60,-1.15"/>
    </edge>
    <edge id=":D0_0" function="internal">
        <lane id=":D0_0_0" index="0" speed="6.92" length="9.55" shape="351.60,1.60,-159.06 349.18,1.98,-159.06 347.37,3.11,-159.06 346.16,5.01,-159.06 345.55,7.65,-159.06"/>
    </edge>
    <edge id=":D0_1" function="internal">
        <lane id=":D0_1_0" index="0" speed="13.89" length="14.43" shape="351.60,1.60,-159.06 337.17,1.60,-159.06"/>
    </edge>
    <edge id=":D0_2" function="internal">
        <lane id=":D0_2_0" index="0" speed="3.65" length="2.34" shape="351.60,1.60,-159.06 350.40,0.80,-159.06 350.00,0.00,-159.06"/>
    </edge>
    <edge id=":D0_9" function="internal">
        <lane id=":D0_9_0" index="0" speed="3.65" length="2.34" shape="350.00,0.00,-159.06 350.40,-0.80,-159.06 351.60,-1.60,-159.06"/>
    </edge>
    <edge id=":D0_3" function="internal">
        <lane id=":D0_3_0" index="0" speed="13.89" length="14.43" shape="337.17,-1.60,-159.06 351.60,-1.60,-159.06"/>
    </edge>
    <edge id=":D0_4" function="internal">
        <lane id=":D0_4_0" index="0" speed="7.83" length="5.96" shape="337.17,-1.60,-159.06 341.18,-1.02,-159.06 342.79,0.00,-159.06"/>
    </edge>
    <edge id=":D0_5" function="internal">
        <lane id=":D0_5_0" index="0" speed="3.65" length="2.34" shape="337.17,-1.60,-159.06 338.37,-0.80,-159.06 338.77,0.00,-159.06"/>
    </edge>
    <edge id=":D0_10" function="internal">
        <lane id=":D0_10_0" index="0" speed="7.83" length="8.62" shape="342.79,0.00,-159.06 343.92,0.71,-159.06 345.37,3.61,-159.06 345.55,7.65,-159.06"/>
    </edge>
    <edge id=":D0_11" function="internal">
        <lane id=":D0_11_0" index="0" speed="3.65" length="2.34" shape="338.77,0.00,-159.06 338.37,0.80,-159.06 337.17,1.60,-159.06"/>
    </edge>
    <edge id=":D0_6" function="internal">
        <lane id=":D0_6_0" index="0" speed="6.30" length="9.04" shape="342.37,7.34,-159.06 342.26,4.83,-159.06 341.35,3.03,-159.06 339.66,1.96,-159.06 337.17,1.60,-159.06"/>
    </edge>
    <edge id=":D0_7" function="internal">
        <lane id=":D0_7_0" index="0" speed="8.34" length="14.35" shape="342.37,7.34,-159.06 343.28,3.43,-159.06 345.12,0.63,-159.06 347.90,-1.04,-159.06 351.60,-1.60,-159.06"/>
    </edge>
    <edge id=":D0_8" function="internal">
        <lane id=":D0_8_0" index="0" speed="3.65" length="4.67" shape="342.37,7.34,-159.06 343.28,6.22,-159.06 344.12,5.90,-159.06 344.88,6.38,-159.06 345.55,7.65,-159.06"/>
    </edge>
    <edge id=":D1_0" function="internal">
        <lane id=":D1_0_0" index="0" speed="13.89" length="19.53" shape="347.42,101.60,-144.96 327.89,101.60,-144.96"/>
    </edge>
    <edge id=":D1_1" function="internal">
        <lane id=":D1_1_0" index="0" speed="8.82" length="9.02" shape="347.42,101.60,-144.96 341.18,101.02,-144.96 338.63,100.00,-144.96"/>
    </edge>
    <edge id=":D1_2" function="internal">
        <lane id=":D1_2_0" index="0" speed="3.65" length="2.34" shape="347.42,101.60,-144.96 346.22,100.80,-144.96 345.82,100.00,-144.96"/>
    </edge>
    <edge id=":D1_9" function="internal">
        <lane id=":D1_9_0" index="0" speed="8.82" length="9.76" shape="338.63,100.00,-144.96 336.85,99.29,-144.96 334.43,96.39,-144.96 333.94,92.35,-144.96"/>
    </edge>
    <edge id=":D1_10" function="internal">
        <lane id=":D1_10_0" index="0" speed="3.65" length="2.34" shape="345.82,100.00,-144.96 346.22,99.20,-144.96 347.42,98.40,-144.96"/>
    </edge>
    <edge id=":D1_3" function="internal">
        <lane id=":D1_3_0" index="0" speed="7.51" length="13.32" shape="337.12,92.66,-144.96 337.55,95.17,-144.96 339.41,96.97,-144.96 342.70,98.04,-144.96 347.42,98.40,-144.96"/>
    </edge>
    <edge id=":D1_4" function="internal">
        <lane id=":D1_4_0" index="0" speed="8.34" length="14.35" shape="337.12,92.66,-144.96 336.21,96.57,-144.96 334.37,99.37,-144.96 331.59,101.04,-144.96 327.89,101.60,-144.96"/>
    </edge>
    <edge id=":D1_5" function="internal">
        <lane id=":D1_5_0" index="0" speed="3.65" length="4.67" shape="337.12,92.66,-144.96 336.21,93.78,-144.96 335.37,94.10,-144.96 334.61,93.62,-144.96 333.94,92.35,-144.96"/>
    </edge>
    <edge id=":D1_6" function="internal">
        <lane id=":D1_6_0" index="0" speed="6.92" length="9.55" shape="327.89,98.40,-144.96 330.31,98.02,-144.96 332.12,96.89,-144.96 333.33,94.99,-144.96 333.94,92.35,-144.96"/>
    </edge>
    <edge id=":D1_7" function="internal">
        <lane id=":D1_7_0" index="0" speed="13.89" length="19.53" shape="327.89,98.40,-144.96 347.42,98.40,-144.96"/>
    </edge>
    <edge id=":D1_8" function="internal">
        <lane id=":D1_8_0" index="0" speed="3.65" length="2.34" shape="327.89,98.40,-144.96 329.09,99.20,-144.96 329.49,100.00,-144.96"/>
    </edge>
    <edge id=":D1_11" function="internal">
        <lane id=":D1_11_0" index="0" speed="3.65" length="2.34" shape="329.49,100.00,-144.96 329.09,100.80,-144.96 327.89,101.60,-144.96"/>
    </edge>
    <edge id=":E0_0" function="internal">
        <lane id=":E0_0_0" index="0" speed="12.79" length="15.12" shape="449.19,9.42,-15.16 446.44,6.71,-15.16 443.48,4.19,-15.16 440.25,2.33,-15.16 436.68,1.60,-15.16"/>
    </edge>
    <edge id=":E0_1" function="internal">
        <lane id=":E0_1_0" index="0" speed="7.42" length="19.32" shape="449.19,9.42,-15.16 445.33,4.60,-15.16 444.80,1.16,-15.16 447.61,-0.91,-15.16 453.75,-1.60,-15.16"/>
    </edge>
    <edge id=":E0_2" function="internal">
        <lane id=":E0_2_0" index="0" speed="3.65" length="4.67" shape="449.19,9.42,-15.16 448.90,8.01,-15.16 449.18,7.16,-15.16 450.03,6.88,-15.16 451.45,7.16,-15.16"/>
    </edge>
    <edge id=":E0_3" function="internal">
        <lane id=":E0_3_0" index="0" speed="5.47" length="9.74" shape="453.75,1.60,-15.16 450.65,1.95,-15.16 449.24,2.99,-15.16 449.50,4.73,-15.16 451.45,7.16,-15.16"/>
    </edge>
    <edge id=":E0_4" function="internal">
        <lane id=":E0_4_0" index="0" speed="13.89" length="17.06" shape="453.75,1.60,-15.16 436.68,1.60,-15.16"/>
    </edge>
    <edge id=":E0_5" function="internal">
        <lane id=":E0_5_0" index="0" speed="3.65" length="2.34" shape="453.75,1.60,-15.16 452.55,0.80,-15.16 452.15,0.00,-15.16"/>
    </edge>
    <edge id=":E0_9" function="internal">
        <lane id=":E0_9_0" index="0" speed="3.65" length="2.34" shape="452.15,0.00,-15.16 452.55,-0.80,-15.16 453.75,-1.60,-15.16"/>
    </edge>
    <edge id=":E0_6" function="internal">
        <lane id=":E0_6_0" index="0" speed="13.89" length="17.06" shape="436.68,-1.60,-15.16 453.75,-1.60,-15.16"/>
    </edge>
    <edge id=":E0_7" function="internal">
        <lane id=":E0_7_0" index="0" speed="13.73" length="5.54" shape="436.68,-1.60,-15.16 440.60,-0.73,-15.16 441.94,-0.00,-15.16"/>
    </edge>
    <edge id=":E0_8" function="internal">
        <lane id=":E0_8_0" index="0" speed="3.65" length="2.34" shape="436.68,-1.60,-15.16 437.88,-0.80,-15.16 438.28,0.00,-15.16"/>
    </edge>
    <edge id=":E0_10" function="internal">
        <lane id=":E0_10_0" index="0" speed="13.73" length="11.95" shape="441.94,-0.00,-15.16 444.61,1.45,-15.16 448.35,4.30,-15.16 451.45,7.16,-15.16"/>
    </edge>
    <edge id=":E0_11" function="internal">
        <lane id=":E0_11_0" index="0" speed="3.65" length="2.34" shape="438.28,0.00,-15.16 437.88,0.80,-15.16 436.68,1.60,-15.16"/>
    </edge>
    <edge id=":E1_0" function="internal">
        <lane id=":E1_0_0" index="0" speed="13.89" length="17.06" shape="547.57,101.60,37.21 530.51,101.60,37.21"/>
    </edge>
    <edge id=":E1_1" function="internal">
        <lane id=":E1_1_0" index="0" speed="13.73" length="5.54" shape="547.57,101.60,37.21 543.65,100.73,37.21 542.32,100.00,37.21"/>
    </edge>
    <edge id=":E1_2" function="internal">
        <lane id=":E1_2_0" index="0" speed="3.65" length="2.34" shape="547.57,101.60,37.21 546.37,100.80,37.21 545.97,100.00,37.21"/>
    </edge>
    <edge id=":E1_9" function="internal">
        <lane id=":E1_9_0" index="0" speed="13.73" length="11.95" shape="542.32,100.00,37.21 539.64,98.55,37.21 535.90,95.70,37.21 532.81,92.84,37.21"/>
    </edge>
    <edge id=":E1_10" function="internal">
        <lane id=":E1_10_0" index="0" speed="3.65" length="2.34" shape="545.97,100.00,37.21 546.37,99.20,37.21 547.57,98.40,37.21"/>
    </edge>
    <edge id=":E1_3" function="internal">
        <lane id=":E1_3_0" index="0" speed="12.79" length="15.12" shape="535.07,90.58,37.21 537.81,93.29,37.21 540.77,95.81,37.21 544.01,97.67,37.21 547.57,98.40,37.21"/>
    </edge>
    <edge id=":E1_4" function="internal">
        <lane id=":E1_4_0" index="0" speed="7.42" length="19.32" shape="535.07,90.58,37.21 538.93,95.40,37.21 539.45,98.84,37.21 536.65,100.91,37.21 530.51,101.60,37.21"/>
    </edge>
    <edge id=":E1_5" function="internal">
        <lane id=":E1_5_0" index="0" speed="3.65" length="4.67" shape="535.07,90.58,37.21 535.35,91.99,37.21 535.07,92.84,37.21 534.22,93.12,37.21 532.81,92.84,37.21"/>
    </edge>
    <edge id=":E1_6" function="internal">
        <lane id=":E1_6_0" index="0" speed="5.47" length="9.74" shape="530.51,98.40,37.21 533.60,98.05,37.21 535.02,97.01,37.21 534.75,95.27,37.21 532.81,92.84,37.21"/>
    </edge>
    <edge id=":E1_7" function="internal">
        <lane id=":E1_7_0" index="0" speed="13.89" length="17.06" shape="530.51,98.40,37.21 547.57,98.40,37.21"/>
    </edge>
    <edge id=":E1_8" function="internal">
        <lane id=":E1_8_0" index="0" speed="3.65" length="2.34" shape="530.51,98.40,37.21 531.71,99.20,37.21 532.11,100.00,37.21"/>
    </edge>
    <edge id=":E1_11" function="internal">
        <lane id=":E1_11_0" index="0" speed="3.65" length="2.34" shape="532.11,100.00,37.21 531.71,100.80,37.21 530.51,101.60,37.21"/>
    </edge>
    <edge id=":F0_0" function="internal">
        <lane id=":F0_0_0" index="0" speed="7.94" length="10.76" shape="526.71,8.44,-54.39 525.46,5.45,-54.39 523.83,3.31,-54.39 521.82,2.03,-54.39 519.42,1.60,-54.39"/>
    </edge>
    <edge id=":F0_1" function="internal">
        <lane id=":F0_1_0" index="0" speed="7.57" length="15.48" shape="526.71,8.44,-54.39 526.01,4.05,-54.39 527.01,0.91,-54.39 529.71,-0.97,-54.39 534.12,-1.60,-54.39"/>
    </edge>
    <edge id=":F0_2" function="internal">
        <lane id=":F0_2_0" index="0" speed="3.65" length="4.67" shape="526.71,8.44,-54.39 527.12,7.06,-54.39 527.77,6.44,-54.39 528.65,6.58,-54.39 529.77,7.49,-54.39"/>
    </edge>
    <edge id=":F0_3" function="internal">
        <lane id=":F0_3_0" index="0" speed="5.96" length="9.09" shape="534.12,1.60,-54.39 531.53,1.97,-54.39 529.95,3.07,-54.39 529.36,4.92,-54.39 529.77,7.49,-54.39"/>
    </edge>
    <edge id=":F0_4" function="internal">
        <lane id=":F0_4_0" index="0" speed="13.89" length="14.70" shape="534.12,1.60,-54.39 519.42,1.60,-54.39"/>
    </edge>
    <edge id=":F0_5" function="internal">
        <lane id=":F0_5_0" index="0" speed="3.65" length="2.34" shape="534.12,1.60,-54.39 532.92,0.80,-54.39 532.52,0.00,-54.39"/>
    </edge>
    <edge id=":F0_9" function="internal">
        <lane id=":F0_9_0" index="0" speed="3.65" length="2.34" shape="532.52,0.00,-54.39 532.92,-0.80,-54.39 534.12,-1.60,-54.39"/>
    </edge>
    <edge id=":F0_6" function="internal">
        <lane id=":F0_6_0" index="0" speed="13.89" length="14.70" shape="519.42,-1.60,-54.39 534.12,-1.60,-54.39"/>
    </edge>
    <edge id=":F0_7" function="internal">
        <lane id=":F0_7_0" index="0" speed="9.24" length="5.55" shape="519.42,-1.60,-54.39 522.89,-1.03,-54.39 524.64,0.00,-54.39"/>
    </edge>
    <edge id=":F0_8" function="internal">
        <lane id=":F0_8_0" index="0" speed="3.65" length="2.34" shape="519.42,-1.60,-54.39 520.62,-0.80,-54.39 521.02,0.00,-54.39"/>
    </edge>
    <edge id=":F0_10" function="internal">
        <lane id=":F0_10_0" index="0" speed="9.24" length="9.30" shape="524.64,0.00,-54.39 525.78,0.67,-54.39 528.07,3.52,-54.39 529.77,7.49,-54.39"/>
    </edge>
    <edge id=":F0_11" function="internal">
        <lane id=":F0_11_0" index="0" speed="3.65" length="2.34" shape="521.02,0.00,-54.39 520.62,0.80,-54.39 519.42,1.60,-54.39"/>
    </edge>
    <edge id=":F1_0" function="internal">
        <lane id=":F1_0_0" index="0" speed="13.89" length="32.12" shape="559.80,101.60,-31.64 548.34,101.60,-1.64"/>
    </edge>
    <edge id=":F1_1" function="internal">
        <lane id=":F1_1_0" index="0" speed="8.43" length="3.67" shape="559.80,101.60,-31.64 558.47,101.23,-28.25"/>
    </edge>
    <edge id=":F1_2" function="internal">
        <lane id=":F1_2_0" index="0" speed="3.65" length="2.34" shape="559.80,101.60,-31.64 558.60,100.80,-31.64 558.20,100.00,-31.64"/>
    </edge>
    <edge id=":F1_9" function="internal">
        <lane id=":F1_9_0" index="0" speed="8.43" length="28.73" shape="558.47,101.23,-28.25 557.74,101.03,-26.40 555.87,99.33,-20.19 554.18,96.48,-12.08 552.68,92.51,-1.64"/>
    </edge>
    <edge id=":F1_10" function="internal">
        <lane id=":F1_10_0" index="0" speed="3.65" length="2.34" shape="558.20,100.00,-31.64 558.60,99.20,-31.64 559.80,98.40,-31.64"/>
    </edge>
    <edge id=":F1_3" function="internal">
        <lane id=":F1_3_0" index="0" speed="7.02" length="31.11" shape="555.74,91.56,-1.64 556.79,94.55,-13.18 557.81,96.69,-21.81 558.82,97.97,-27.74 559.80,98.40,-31.64"/>
    </edge>
    <edge id=":F1_4" function="internal">
        <lane id=":F1_4_0" index="0" speed="7.57" length="15.48" shape="555.74,91.56,-1.64 556.44,95.95,-1.64 555.44,99.09,-1.64 552.74,100.97,-1.64 548.34,101.60,-1.64"/>
    </edge>
    <edge id=":F1_5" function="internal">
        <lane id=":F1_5_0" index="0" speed="3.65" length="4.67" shape="555.74,91.56,-1.64 555.33,92.94,-1.64 554.69,93.56,-1.64 553.80,93.42,-1.64 552.68,92.51,-1.64"/>
    </edge>
    <edge id=":F1_6" function="internal">
        <lane id=":F1_6_0" index="0" speed="5.96" length="9.09" shape="548.34,98.40,-1.64 550.92,98.03,-1.64 552.51,96.93,-1.64 553.10,95.08,-1.64 552.68,92.51,-1.64"/>
    </edge>
    <edge id=":F1_7" function="internal">
        <lane id=":F1_7_0" index="0" speed="13.89" length="32.12" shape="548.34,98.40,-1.64 559.80,98.40,-31.64"/>
    </edge>
    <edge id=":F1_8" function="internal">
        <lane id=":F1_8_0" index="0" speed="3.65" length="2.34" shape="548.34,98.40,-1.64 549.54,99.20,-1.64 549.94,100.00,-1.64"/>
    </edge>
    <edge id=":F1_11" function="internal">
        <lane id=":F1_11_0" index="0" speed="3.65" length="2.34" shape="549.94,100.00,-1.64 549.54,100.80,-1.64 548.34,101.60,-1.64"/>
    </edge>
    <edge id=":G0_0" function="internal">
        <lane id=":G0_0_0" index="0" speed="11.73" length="14.25" shape="655.39,1.60,-192.44 652.90,2.09,-192.44 650.14,3.54,-192.44 647.12,5.97,-192.44 643.85,9.37,-192.44"/>
    </edge>
    <edge id=":G0_1" function="internal">
        <lane id=":G0_1_0" index="0" speed="13.89" length="16.51" shape="655.39,1.60,-192.44 638.87,1.60,-192.44"/>
    </edge>
    <edge id=":G0_2" function="internal">
        <lane id=":G0_2_0" index="0" speed="3.65" length="2.34" shape="655.39,1.60,-192.44 654.19,0.80,-192.44 653.79,0.00,-192.44"/>
    </edge>
    <edge id=":G0_9" function="internal">
        <lane id=":G0_9_0" index="0" speed="3.65" length="2.34" shape="653.79,0.00,-192.44 654.19,-0.80,-192.44 655.39,-1.60,-192.44"/>
    </edge>
    <edge id=":G0_3" function="internal">
        <lane id=":G0_3_0" index="0" speed="13.89" length="16.51" shape="638.87,-1.60,-192.44 655.39,-1.60,-192.44"/>
    </edge>
    <edge id=":G0_4" function="internal">
        <lane id=":G0_4_0" index="0" speed="7.39" length="7.35" shape="638.87,-1.60,-192.44 644.66,-0.91,-192.44 645.88,0.00,-192.44"/>
    </edge>
    <edge id=":G0_5" function="internal">
        <lane id=":G0_5_0" index="0" speed="3.65" length="2.34" shape="638.87,-1.60,-192.44 640.07,-0.80,-192.44 640.47,0.00,-192.44"/>
    </edge>
    <edge id=":G0_10" function="internal">
        <lane id=":G0_10_0" index="0" speed="7.39" length="11.18" shape="645.88,0.00,-192.44 647.42,1.14,-192.44 647.14,4.57,-192.44 643.85,9.37,-192.44"/>
    </edge>
    <edge id=":G0_11" function="internal">
        <lane id=":G0_11_0" index="0" speed="3.65" length="2.34" shape="640.47,0.00,-192.44 640.07,0.80,-192.44 638.87,1.60,-192.44"/>
    </edge>
    <edge id=":G0_6" function="internal">
        <lane id=":G0_6_0" index="0" speed="5.51" length="9.56" shape="641.44,7.26,-192.44 643.14,4.78,-192.44 643.28,3.02,-192.44 641.86,1.95,-192.44 638.87,1.60,-192.44"/>
    </edge>
    <edge id=":G0_7" function="internal">
        <lane id=":G0_7_0" index="0" speed="12.76" length="16.96" shape="641.44,7.26,-192.44 645.23,3.38,-192.44 648.81,0.62,-192.44 652.20,-1.05,-192.44 655.39,-1.60,-192.44"/>
    </edge>
    <edge id=":G0_8" function="internal">
        <lane id=":G0_8_0" index="0" speed="3.65" length="4.67" shape="641.44,7.26,-192.44 642.83,6.89,-192.44 643.70,7.11,-192.44 644.04,7.94,-192.44 643.85,9.37,-192.44"/>
    </edge>
    <edge id=":G1_0" function="internal">
        <lane id=":G1_0_0" index="0" speed="13.89" length="32.81" shape="573.28,101.60,-61.65 560.00,101.60,-31.64"/>
    </edge>
    <edge id=":G1_1" function="internal">
        <lane id=":G1_1_0" index="0" speed="7.39" length="7.35" shape="573.28,101.60,-61.65 567.49,100.91,-61.65 566.27,100.00,-61.65"/>
    </edge>
    <edge id=":G1_2" function="internal">
        <lane id=":G1_2_0" index="0" speed="3.65" length="2.34" shape="573.28,101.60,-61.65 572.08,100.80,-61.65 571.68,100.00,-61.65"/>
    </edge>
    <edge id=":G1_9" function="internal">
        <lane id=":G1_9_0" index="0" speed="7.39" length="11.18" shape="566.27,100.00,-61.65 564.74,98.86,-61.65 565.01,95.43,-61.65 568.31,90.63,-61.65"/>
    </edge>
    <edge id=":G1_10" function="internal">
        <lane id=":G1_10_0" index="0" speed="3.65" length="2.34" shape="571.68,100.00,-61.65 572.08,99.20,-61.65 573.28,98.40,-61.65"/>
    </edge>
    <edge id=":G1_3" function="internal">
        <lane id=":G1_3_0" index="0" speed="5.51" length="9.56" shape="570.71,92.74,-61.65 569.01,95.22,-61.65 568.87,96.98,-61.65 570.29,98.05,-61.65 573.28,98.40,-61.65"/>
    </edge>
    <edge id=":G1_4" function="internal">
        <lane id=":G1_4_0" index="0" speed="11.67" length="33.15" shape="570.71,92.74,-61.65 567.13,96.62,-50.41 564.15,99.38,-41.76 561.77,101.05,-35.59 560.00,101.60,-31.64"/>
    </edge>
    <edge id=":G1_5" function="internal">
        <lane id=":G1_5_0" index="0" speed="3.65" length="4.67" shape="570.71,92.74,-61.65 569.32,93.11,-61.65 568.45,92.89,-61.65 568.12,92.06,-61.65 568.31,90.63,-61.65"/>
    </edge>
    <edge id=":G1_6" function="internal">