<?xml version="1.0" encoding="UTF-8"?>

<!-- generated on 07/28/20 19:11:38 by Eclipse SUMO netgenerate Version 1.5.0
<configuration xmlns:xsi="http://www.w3.org/2001/XMLSchema-instance" xsi:noNamespaceSchemaLocation="http://sumo.dlr.de/xsd/netgenerateConfiguration.xsd">

    <grid_network>
        <grid value="true"/>
        <grid.x-number value="21"/>
        <grid.y-number value="2"/>
    </grid_network>

    <output>
        <output-file value="2.net.xml"/>
    </output>

    <processing>
        <perturb-z value="25"/>
    </processing>

    <building_defaults>
        <default.speed value="100"/>
    </building_defaults>

    <random_number>
        <seed value="9726976"/>
    </random_number>

</configuration>
-->

<net version="1.3" junctionCornerDetail="5" limitTurnSpeed="5.50" xmlns:xsi="http://www.w3.org/2001/XMLSchema-instance" xsi:noNamespaceSchemaLocation="http://sumo.dlr.de/xsd/net_file.xsd">

    <location netOffset="0.00,0.00" convBoundary="0.00,0.00,2000.00,100.00" origBoundary="0.00,0.00,2000.00,100.00" projParameter="!"/>

    <edge id=":A0_0" function="internal">
        <lane id=":A0_0_0" index="0" speed="6.08" length="7.74" shape="-1.60,3.20,20.07 -1.30,1.10,20.03 -0.40,-0.40,20.00 1.10,-1.30,19.97 3.20,-1.60,19.94"/>
    </edge>
    <edge id=":A0_1" function="internal">
        <lane id=":A0_1_0" index="0" speed="3.90" length="2.59" shape="3.20,1.60,19.88 2.50,1.70,19.93 2.00,2.00,19.97 1.70,2.50,20.02 1.60,3.20,20.07"/>
    </edge>
    <edge id=":A1_0" function="internal">
        <lane id=":A1_0_0" index="0" speed="6.08" length="7.75" shape="3.20,101.60,1.60 1.10,101.30,1.72 -0.40,100.40,1.81 -1.30,98.90,1.91 -1.60,96.80,2.03"/>
    </edge>
    <edge id=":A1_1" function="internal">
        <lane id=":A1_1_0" index="0" speed="3.90" length="2.62" shape="1.60,96.80,2.03 1.70,97.50,1.91 2.00,98.00,1.81 2.50,98.30,1.71 3.20,98.40,1.58"/>
    </edge>
    <edge id=":B0_0" function="internal">
        <lane id=":B0_0_0" index="0" speed="6.51" length="9.03" shape="98.40,7.20,-2.79 98.05,4.75,-2.79 97.00,3.00,-2.79 95.25,1.95,-2.79 92.80,1.60,-2.79"/>
    </edge>
    <edge id=":B0_1" function="internal">
        <lane id=":B0_1_0" index="0" speed="8.00" length="14.19" shape="98.40,7.20,-2.79 98.95,3.35,-2.79 100.60,0.60,-2.79 103.35,-1.05,-2.79 107.20,-1.60,-2.79"/>
    </edge>
    <edge id=":B0_2" function="internal">
        <lane id=":B0_2_0" index="0" speed="3.65" length="4.67" shape="98.40,7.20,-2.79 99.20,6.00,-2.79 100.00,5.60,-2.79 100.80,6.00,-2.79 101.60,7.20,-2.79"/>
    </edge>
    <edge id=":B0_3" function="internal">
        <lane id=":B0_3_0" index="0" speed="6.51" length="9.03" shape="107.20,1.60,-2.79 104.75,1.95,-2.79 103.00,3.00,-2.79 101.95,4.75,-2.79 101.60,7.20,-2.79"/>
    </edge>
    <edge id=":B0_4" function="internal">
        <lane id=":B0_4_0" index="0" speed="100.00" length="14.40" shape="107.20,1.60,-2.79 92.80,1.60,-2.79"/>
    </edge>
    <edge id=":B0_5" function="internal">
        <lane id=":B0_5_0" index="0" speed="3.65" length="2.34" shape="107.20,1.60,-2.79 106.00,0.80,-2.79 105.60,0.00,-2.79"/>
    </edge>
    <edge id=":B0_9" function="internal">
        <lane id=":B0_9_0" index="0" speed="3.65" length="2.34" shape="105.60,0.00,-2.79 106.00,-0.80,-2.79 107.20,-1.60,-2.79"/>
    </edge>
    <edge id=":B0_6" function="internal">
        <lane id=":B0_6_0" index="0" speed="100.00" length="14.40" shape="92.80,-1.60,-2.79 107.20,-1.60,-2.79"/>
    </edge>
    <edge id=":B0_7" function="internal">
        <lane id=":B0_7_0" index="0" speed="8.00" length="5.93" shape="92.80,-1.60,-2.79 96.65,-1.05,-2.79 98.40,0.00,-2.79"/>
    </edge>
    <edge id=":B0_8" function="internal">
        <lane id=":B0_8_0" index="0" speed="3.65" length="2.34" shape="92.80,-1.60,-2.79 94.00,-0.80,-2.79 94.40,0.00,-2.79"/>
    </edge>
    <edge id=":B0_10" function="internal">
        <lane id=":B0_10_0" index="0" speed="8.00" length="8.26" shape="98.40,0.00,-2.79 99.40,0.60,-2.79 101.05,3.35,-2.79 101.60,7.20,-2.79"/>
    </edge>
    <edge id=":B0_11" function="internal">
        <lane id=":B0_11_0" index="0" speed="3.65" length="2.34" shape="94.40,0.00,-2.79 94.00,0.80,-2.79 92.80,1.60,-2.79"/>
    </edge>
    <edge id=":B1_0" function="internal">
        <lane id=":B1_0_0" index="0" speed="100.00" length="14.40" shape="107.20,101.60,6.79 92.80,101.60,6.79"/>
    </edge>
    <edge id=":B1_1" function="internal">
        <lane id=":B1_1_0" index="0" speed="8.00" length="5.93" shape="107.20,101.60,6.79 103.35,101.05,6.79 101.60,100.00,6.79"/>
    </edge>
    <edge id=":B1_2" function="internal">
        <lane id=":B1_2_0" index="0" speed="3.65" length="2.34" shape="107.20,101.60,6.79 106.00,100.80,6.79 105.60,100.00,6.79"/>
    </edge>
    <edge id=":B1_9" function="internal">
        <lane id=":B1_9_0" index="0" speed="8.00" length="8.26" shape="101.60,100.00,6.79 100.60,99.40,6.79 98.95,96.65,6.79 98.40,92.80,6.79"/>
    </edge>
    <edge id=":B1_10" function="internal">
        <lane id=":B1_10_0" index="0" speed="3.65" length="2.34" shape="105.60,100.00,6.79 106.00,99.20,6.79 107.20,98.40,6.79"/>
    </edge>
    <edge id=":B1_3" function="internal">
        <lane id=":B1_3_0" index="0" speed="6.51" length="9.03" shape="101.60,92.80,6.79 101.95,95.25,6.79 103.00,97.00,6.79 104.75,98.05,6.79 107.20,98.40,6.79"/>
    </edge>
    <edge id=":B1_4" function="internal">
        <lane id=":B1_4_0" index="0" speed="8.00" length="14.19" shape="101.60,92.80,6.79 101.05,96.65,6.79 99.40,99.40,6.79 96.65,101.05,6.79 92.80,101.60,6.79"/>
    </edge>
    <edge id=":B1_5" function="internal">
        <lane id=":B1_5_0" index="0" speed="3.65" length="4.67" shape="101.60,92.80,6.79 100.80,94.00,6.79 100.00,94.40,6.79 99.20,94.00,6.79 98.40,92.80,6.79"/>
    </edge>
    <edge id=":B1_6" function="internal">
        <lane id=":B1_6_0" index="0" speed="6.51" length="9.03" shape="92.80,98.40,6.79 95.25,98.05,6.79 97.00,97.00,6.79 98.05,95.25,6.79 98.40,92.80,6.79"/>
    </edge>
    <edge id=":B1_7" function="internal">
        <lane id=":B1_7_0" index="0" speed="100.00" length="14.40" shape="92.80,98.40,6.79 107.20,98.40,6.79"/>
    </edge>
    <edge id=":B1_8" function="internal">
        <lane id=":B1_8_0" index="0" speed="3.65" length="2.34" shape="92.80,98.40,6.79 94.00,99.20,6.79 94.40,100.00,6.79"/>
    </edge>
    <edge id=":B1_11" function="internal">
        <lane id=":B1_11_0" index="0" speed="3.65" length="2.34" shape="94.40,100.00,6.79 94.00,100.80,6.79 92.80,101.60,6.79"/>
    </edge>
    <edge id=":C0_0" function="internal">
        <lane id=":C0_0_0" index="0" speed="6.51" length="9.03" shape="198.40,7.20,21.25 198.05,4.75,21.25 197.00,3.00,21.25 195.25,1.95,21.25 192.80,1.60,21.25"/>
    </edge>
    <edge id=":C0_1" function="internal">
        <lane id=":C0_1_0" index="0" speed="8.00" length="14.19" shape="198.40,7.20,21.25 198.95,3.35,21.25 200.60,0.60,21.25 203.35,-1.05,21.25 207.20,-1.60,21.25"/>
    </edge>
    <edge id=":C0_2" function="internal">
        <lane id=":C0_2_0" index="0" speed="3.65" length="4.67" shape="198.40,7.20,21.25 199.20,6.00,21.25 200.00,5.60,21.25 200.80,6.00,21.25 201.60,7.20,21.25"/>
    </edge>
    <edge id=":C0_3" function="internal">
        <lane id=":C0_3_0" index="0" speed="6.51" length="9.03" shape="207.20,1.60,21.25 204.75,1.95,21.25 203.00,3.00,21.25 201.95,4.75,21.25 201.60,7.20,21.25"/>
    </edge>
    <edge id=":C0_4" function="internal">
        <lane id=":C0_4_0" index="0" speed="100.00" length="14.40" shape="207.20,1.60,21.25 192.80,1.60,21.25"/>
    </edge>
    <edge id=":C0_5" function="internal">
        <lane id=":C0_5_0" index="0" speed="3.65" length="2.34" shape="207.20,1.60,21.25 206.00,0.80,21.25 205.60,0.00,21.25"/>
    </edge>
    <edge id=":C0_9" function="internal">
        <lane id=":C0_9_0" index="0" speed="3.65" length="2.34" shape="205.60,0.00,21.25 206.00,-0.80,21.25 207.20,-1.60,21.25"/>
    </edge>
    <edge id=":C0_6" function="internal">
        <lane id=":C0_6_0" index="0" speed="100.00" length="14.40" shape="192.80,-1.60,21.25 207.20,-1.60,21.25"/>
    </edge>
    <edge id=":C0_7" function="internal">
        <lane id=":C0_7_0" index="0" speed="8.00" length="5.93" shape="192.80,-1.60,21.25 196.65,-1.05,21.25 198.40,-0.00,21.25"/>
    </edge>
    <edge id=":C0_8" function="internal">
        <lane id=":C0_8_0" index="0" speed="3.65" length="2.34" shape="192.80,-1.60,21.25 194.00,-0.80,21.25 194.40,0.00,21.25"/>
    </edge>
    <edge id=":C0_10" function="internal">
        <lane id=":C0_10_0" index="0" speed="8.00" length="8.26" shape="198.40,-0.00,21.25 199.40,0.60,21.25 201.05,3.35,21.25 201.60,7.20,21.25"/>
    </edge>
    <edge id=":C0_11" function="internal">
        <lane id=":C0_11_0" index="0" speed="3.65" length="2.34" shape="194.40,0.00,21.25 194.00,0.80,21.25 192.80,1.60,21.25"/>
    </edge>
    <edge id=":C1_0" function="internal">
        <lane id=":C1_0_0" index="0" speed="100.00" length="14.40" shape="207.20,101.60,16.41 192.80,101.60,16.41"/>
    </edge>
    <edge id=":C1_1" function="internal">
        <lane id=":C1_1_0" index="0" speed="8.00" length="5.93" shape="207.20,101.60,16.41 203.35,101.05,16.41 201.60,100.00,16.41"/>
    </edge>
    <edge id=":C1_2" function="internal">
        <lane id=":C1_2_0" index="0" speed="3.65" length="2.34" shape="207.20,101.60,16.41 206.00,100.80,16.41 205.60,100.00,16.41"/>
    </edge>
    <edge id=":C1_9" function="internal">
        <lane id=":C1_9_0" index="0" speed="8.00" length="8.26" shape="201.60,100.00,16.41 200.60,99.40,16.41 198.95,96.65,16.41 198.40,92.80,16.41"/>
    </edge>
    <edge id=":C1_10" function="internal">
        <lane id=":C1_10_0" index="0" speed="3.65" length="2.34" shape="205.60,100.00,16.41 206.00,99.20,16.41 207.20,98.40,16.41"/>
    </edge>
    <edge id=":C1_3" function="internal">
        <lane id=":C1_3_0" index="0" speed="6.51" length="9.03" shape="201.60,92.80,16.41 201.95,95.25,16.41 203.00,97.00,16.41 204.75,98.05,16.41 207.20,98.40,16.41"/>
    </edge>
    <edge id=":C1_4" function="internal">
        <lane id=":C1_4_0" index="0" speed="8.00" length="14.19" shape="201.60,92.80,16.41 201.05,96.65,16.41 199.40,99.40,16.41 196.65,101.05,16.41 192.80,101.60,16.41"/>
    </edge>
    <edge id=":C1_5" function="internal">
        <lane id=":C1_5_0" index="0" speed="3.65" length="4.67" shape="201.60,92.80,16.41 200.80,94.00,16.41 200.00,94.40,16.41 199.20,94.00,16.41 198.40,92.80,16.41"/>
    </edge>
    <edge id=":C1_6" function="internal">
        <lane id=":C1_6_0" index="0" speed="6.51" length="9.03" shape="192.80,98.40,16.41 195.25,98.05,16.41 197.00,97.00,16.41 198.05,95.25,16.41 198.40,92.80,16.41"/>
    </edge>
    <edge id=":C1_7" function="internal">
        <lane id=":C1_7_0" index="0" speed="100.00" length="14.40" shape="192.80,98.40,16.41 207.20,98.40,16.41"/>
    </edge>
    <edge id=":C1_8" function="internal">
        <lane id=":C1_8_0" index="0" speed="3.65" length="2.34" shape="192.80,98.40,16.41 194.00,99.20,16.41 194.40,100.00,16.41"/>
    </edge>
    <edge id=":C1_11" function="internal">
        <lane id=":C1_11_0" index="0" speed="3.65" length="2.34" shape="194.40,100.00,16.41 194.00,100.80,16.41 192.80,101.60,16.41"/>
    </edge>
    <edge id=":D0_0" function="internal">
        <lane id=":D0_0_0" index="0" speed="6.51" length="9.03" shape="298.40,7.20,-13.25 298.05,4.75,-13.25 297.00,3.00,-13.25 295.25,1.95,-13.25 292.80,1.60,-13.25"/>
    </edge>
    <edge id=":D0_1" function="internal">
        <lane id=":D0_1_0" index="0" speed="8.00" length="14.19" shape="298.40,7.20,-13.25 298.95,3.35,-13.25 300.60,0.60,-13.25 303.35,-1.05,-13.25 307.20,-1.60,-13.25"/>
    </edge>
    <edge id=":D0_2" function="internal">
        <lane id=":D0_2_0" index="0" speed="3.65" length="4.67" shape="298.40,7.20,-13.25 299.20,6.00,-13.25 300.00,5.60,-13.25 300.80,6.00,-13.25 301.60,7.20,-13.25"/>
    </edge>
    <edge id=":D0_3" function="internal">
        <lane id=":D0_3_0" index="0" speed="6.51" length="9.03" shape="307.20,1.60,-13.25 304.75,1.95,-13.25 303.00,3.00,-13.25 301.95,4.75,-13.25 301.60,7.20,-13.25"/>
    </edge>
    <edge id=":D0_4" function="internal">
        <lane id=":D0_4_0" index="0" speed="100.00" length="14.40" shape="307.20,1.60,-13.25 292.80,1.60,-13.25"/>
    </edge>
    <edge id=":D0_5" function="internal">
        <lane id=":D0_5_0" index="0" speed="3.65" length="2.34" shape="307.20,1.60,-13.25 306.00,0.80,-13.25 305.60,0.00,-13.25"/>
    </edge>
    <edge id=":D0_9" function="internal">
        <lane id=":D0_9_0" index="0" speed="3.65" length="2.34" shape="305.60,0.00,-13.25 306.00,-0.80,-13.25 307.20,-1.60,-13.25"/>
    </edge>
    <edge id=":D0_6" function="internal">
        <lane id=":D0_6_0" index="0" speed="100.00" length="14.40" shape="292.80,-1.60,-13.25 307.20,-1.60,-13.25"/>
    </edge>
    <edge id=":D0_7" function="internal">
        <lane id=":D0_7_0" index="0" speed="8.00" length="5.93" shape="292.80,-1.60,-13.25 296.65,-1.05,-13.25 298.40,-0.00,-13.25"/>
    </edge>
    <edge id=":D0_8" function="internal">
        <lane id=":D0_8_0" index="0" speed="3.65" length="2.34" shape="292.80,-1.60,-13.25 294.00,-0.80,-13.25 294.40,0.00,-13.25"/>
    </edge>
    <edge id=":D0_10" function="internal">
        <lane id=":D0_10_0" index="0" speed="8.00" length="8.26" shape="298.40,-0.00,-13.25 299.40,0.60,-13.25 301.05,3.35,-13.25 301.60,7.20,-13.25"/>
    </edge>
    <edge id=":D0_11" function="internal">
        <lane id=":D0_11_0" index="0" speed="3.65" length="2.34" shape="294.40,0.00,-13.25 294.00,0.80,-13.25 292.80,1.60,-13.25"/>
    </edge>
    <edge id=":D1_0" function="internal">
        <lane id=":D1_0_0" index="0" speed="100.00" length="14.40" shape="307.20,101.60,30.93 292.80,101.60,30.93"/>
    </edge>
    <edge id=":D1_1" function="internal">
        <lane id=":D1_1_0" index="0" speed="8.00" length="5.93" shape="307.20,101.60,30.93 303.35,101.05,30.93 301.60,100.00,30.93"/>
    </edge>
    <edge id=":D1_2" function="internal">
        <lane id=":D1_2_0" index="0" speed="3.65" length="2.34" shape="307.20,101.60,30.93 306.00,100.80,30.93 305.60,100.00,30.93"/>
    </edge>
    <edge id=":D1_9" function="internal">
        <lane id=":D1_9_0" index="0" speed="8.00" length="8.26" shape="301.60,100.00,30.93 300.60,99.40,30.93 298.95,96.65,30.93 298.40,92.80,30.93"/>
    </edge>
    <edge id=":D1_10" function="internal">
        <lane id=":D1_10_0" index="0" speed="3.65" length="2.34" shape="305.60,100.00,30.93 306.00,99.20,30.93 307.20,98.40,30.93"/>
    </edge>
    <edge id=":D1_3" function="internal">
        <lane id=":D1_3_0" index="0" speed="6.51" length="9.03" shape="301.60,92.80,30.93 301.95,95.25,30.93 303.00,97.00,30.93 304.75,98.05,30.93 307.20,98.40,30.93"/>
    </edge>
    <edge id=":D1_4" function="internal">
        <lane id=":D1_4_0" index="0" speed="8.00" length="14.19" shape="301.60,92.80,30.93 301.05,96.65,30.93 299.40,99.40,30.93 296.65,101.05,30.93 292.80,101.60,30.93"/>
    </edge>
    <edge id=":D1_5" function="internal">
        <lane id=":D1_5_0" index="0" speed="3.65" length="4.67" shape="301.60,92.80,30.93 300.80,94.00,30.93 300.00,94.40,30.93 299.20,94.00,30.93 298.40,92.80,30.93"/>
    </edge>
    <edge id=":D1_6" function="internal">
        <lane id=":D1_6_0" index="0" speed="6.51" length="9.03" shape="292.80,98.40,30.93 295.25,98.05,30.93 297.00,97.00,30.93 298.05,95.25,30.93 298.40,92.80,30.93"/>
    </edge>
    <edge id=":D1_7" function="internal">
        <lane id=":D1_7_0" index="0" speed="100.00" length="14.40" shape="292.80,98.40,30.93 307.20,98.40,30.93"/>
    </edge>
    <edge id=":D1_8" function="internal">
        <lane id=":D1_8_0" index="0" speed="3.65" length="2.34" shape="292.80,98.40,30.93 294.00,99.20,30.93 294.40,100.00,30.93"/>
    </edge>
    <edge id=":D1_11" function="internal">
        <lane id=":D1_11_0" index="0" speed="3.65" length="2.34" shape="294.40,100.00,30.93 294.00,100.80,30.93 292.80,101.60,30.93"/>
    </edge>
    <edge id=":E0_0" function="internal">
        <lane id=":E0_0_0" index="0" speed="6.51" length="9.03" shape="398.40,7.20,16.81 398.05,4.75,16.81 397.00,3.00,16.81 395.25,1.95,16.81 392.80,1.60,16.81"/>
    </edge>
    <edge id=":E0_1" function="internal">
        <lane id=":E0_1_0" index="0" speed="8.00" length="14.19" shape="398.40,7.20,16.81 398.95,3.35,16.81 400.60,0.60,16.81 403.35,-1.05,16.81 407.20,-1.60,16.81"/>
    </edge>
    <edge id=":E0_2" function="internal">
        <lane id=":E0_2_0" index="0" speed="3.65" length="4.67" shape="398.40,7.20,16.81 399.20,6.00,16.81 400.00,5.60,16.81 400.80,6.00,16.81 401.60,7.20,16.81"/>
    </edge>
    <edge id=":E0_3" function="internal">
        <lane id=":E0_3_0" index="0" speed="6.51" length="9.03" shape="407.20,1.60,16.81 404.75,1.95,16.81 403.00,3.00,16.81 401.95,4.75,16.81 401.60,7.20,16.81"/>
    </edge>
    <edge id=":E0_4" function="internal">
        <lane id=":E0_4_0" index="0" speed="100.00" length="14.40" shape="407.20,1.60,16.81 392.80,1.60,16.81"/>
    </edge>
    <edge id=":E0_5" function="internal">
        <lane id=":E0_5_0" index="0" speed="3.65" length="2.34" shape="407.20,1.60,16.81 406.00,0.80,16.81 405.60,0.00,16.81"/>
    </edge>
    <edge id=":E0_9" function="internal">
        <lane id=":E0_9_0" index="0" speed="3.65" length="2.34" shape="405.60,0.00,16.81 406.00,-0.80,16.81 407.20,-1.60,16.81"/>
    </edge>
    <edge id=":E0_6" function="internal">
        <lane id=":E0_6_0" index="0" speed="100.00" length="14.40" shape="392.80,-1.60,16.81 407.20,-1.60,16.81"/>
    </edge>
    <edge id=":E0_7" function="internal">
        <lane id=":E0_7_0" index="0" speed="8.00" length="5.93" shape="392.80,-1.60,16.81 396.65,-1.05,16.81 398.40,-0.00,16.81"/>
    </edge>
    <edge id=":E0_8" function="internal">
        <lane id=":E0_8_0" index="0" speed="3.65" length="2.34" shape="392.80,-1.60,16.81 394.00,-0.80,16.81 394.40,0.00,16.81"/>
    </edge>
    <edge id=":E0_10" function="internal">
        <lane id=":E0_10_0" index="0" speed="8.00" length="8.26" shape="398.40,-0.00,16.81 399.40,0.60,16.81 401.05,3.35,16.81 401.60,7.20,16.81"/>
    </edge>
    <edge id=":E0_11" function="internal">
        <lane id=":E0_11_0" index="0" speed="3.65" length="2.34" shape="394.40,0.00,16.81 394.00,0.80,16.81 392.80,1.60,16.81"/>
    </edge>
    <edge id=":E1_0" function="internal">
        <lane id=":E1_0_0" index="0" speed="100.00" length="14.40" shape="407.20,101.60,-26.82 392.80,101.60,-26.82"/>
    </edge>
    <edge id=":E1_1" function="internal">
        <lane id=":E1_1_0" index="0" speed="8.00" length="5.93" shape="407.20,101.60,-26.82 403.35,101.05,-26.82 401.60,100.00,-26.82"/>
    </edge>
    <edge id=":E1_2" function="internal">
        <lane id=":E1_2_0" index="0" speed="3.65" length="2.34" shape="407.20,101.60,-26.82 406.00,100.80,-26.82 405.60,100.00,-26.82"/>
    </edge>
    <edge id=":E1_9" function="internal">
        <lane id=":E1_9_0" index="0" speed="8.00" length="8.26" shape="401.60,100.00,-26.82 400.60,99.40,-26.82 398.95,96.65,-26.82 398.40,92.80,-26.82"/>
    </edge>
    <edge id=":E1_10" function="internal">
        <lane id=":E1_10_0" index="0" speed="3.65" length="2.34" shape="405.60,100.00,-26.82 406.00,99.20,-26.82 407.20,98.40,-26.82"/>
    </edge>
    <edge id=":E1_3" function="internal">
        <lane id=":E1_3_0" index="0" speed="6.51" length="9.03" shape="401.60,92.80,-26.82 401.95,95.25,-26.82 403.00,97.00,-26.82 404.75,98.05,-26.82 407.20,98.40,-26.82"/>
    </edge>
    <edge id=":E1_4" function="internal">
        <lane id=":E1_4_0" index="0" speed="8.00" length="14.19" shape="401.60,92.80,-26.82 401.05,96.65,-26.82 399.40,99.40,-26.82 396.65,101.05,-26.82 392.80,101.60,-26.82"/>
    </edge>
    <edge id=":E1_5" function="internal">
        <lane id=":E1_5_0" index="0" speed="3.65" length="4.67" shape="401.60,92.80,-26.82 400.80,94.00,-26.82 400.00,94.40,-26.82 399.20,94.00,-26.82 398.40,92.80,-26.82"/>
    </edge>
    <edge id=":E1_6" function="internal">
        <lane id=":E1_6_0" index="0" speed="6.51" length="9.03" shape="392.80,98.40,-26.82 395.25,98.05,-26.82 397.00,97.00,-26.82 398.05,95.25,-26.82 398.40,92.80,-26.82"/>
    </edge>
    <edge id=":E1_7" function="internal">
        <lane id=":E1_7_0" index="0" speed="100.00" length="14.40" shape="392.80,98.40,-26.82 407.20,98.40,-26.82"/>
    </edge>
    <edge id=":E1_8" function="internal">
        <lane id=":E1_8_0" index="0" speed="3.65" length="2.34" shape="392.80,98.40,-26.82 394.00,99.20,-26.82 394.40,100.00,-26.82"/>
    </edge>
    <edge id=":E1_11" function="internal">
        <lane id=":E1_11_0" index="0" speed="3.65" length="2.34" shape="394.40,100.00,-26.82 394.00,100.80,-26.82 392.80,101.60,-26.82"/>
    </edge>
    <edge id=":F0_0" function="internal">
        <lane id=":F0_0_0" index="0" speed="6.51" length="9.03" shape="498.40,7.20,-15.02 498.05,4.75,-15.02 497.00,3.00,-15.02 495.25,1.95,-15.02 492.80,1.60,-15.02"/>
    </edge>
    <edge id=":F0_1" function="internal">
        <lane id=":F0_1_0" index="0" speed="8.00" length="14.19" shape="498.40,7.20,-15.02 498.95,3.35,-15.02 500.60,0.60,-15.02 503.35,-1.05,-15.02 507.20,-1.60,-15.02"/>
    </edge>
    <edge id=":F0_2" function="internal">
        <lane id=":F0_2_0" index="0" speed="3.65" length="4.67" shape="498.40,7.20,-15.02 499.20,6.00,-15.02 500.00,5.60,-15.02 500.80,6.00,-15.02 501.60,7.20,-15.02"/>
    </edge>
    <edge id=":F0_3" function="internal">
        <lane id=":F0_3_0" index="0" speed="6.51" length="9.03" shape="507.20,1.60,-15.02 504.75,1.95,-15.02 503.00,3.00,-15.02 501.95,4.75,-15.02 501.60,7.20,-15.02"/>
    </edge>
    <edge id=":F0_4" function="internal">
        <lane id=":F0_4_0" index="0" speed="100.00" length="14.40" shape="507.20,1.60,-15.02 492.80,1.60,-15.02"/>
    </edge>
    <edge id=":F0_5" function="internal">
        <lane id=":F0_5_0" index="0" speed="3.65" length="2.34" shape="507.20,1.60,-15.02 506.00,0.80,-15.02 505.60,0.00,-15.02"/>
    </edge>
    <edge id=":F0_9" function="internal">
        <lane id=":F0_9_0" index="0" speed="3.65" length="2.34" shape="505.60,0.00,-15.02 506.00,-0.80,-15.02 507.20,-1.60,-15.02"/>
    </edge>
    <edge id=":F0_6" function="internal">
        <lane id=":F0_6_0" index="0" speed="100.00" length="14.40" shape="492.80,-1.60,-15.02 507.20,-1.60,-15.02"/>
    </edge>
    <edge id=":F0_7" function="internal">
        <lane id=":F0_7_0" index="0" speed="8.00" length="5.93" shape="492.80,-1.60,-15.02 496.65,-1.05,-15.02 498.40,-0.00,-15.02"/>
    </edge>
    <edge id=":F0_8" function="internal">
        <lane id=":F0_8_0" index="0" speed="3.65" length="2.34" shape="492.80,-1.60,-15.02 494.00,-0.80,-15.02 494.40,0.00,-15.02"/>
    </edge>
    <edge id=":F0_10" function="internal">
        <lane id=":F0_10_0" index="0" speed="8.00" length="8.26" shape="498.40,-0.00,-15.02 499.40,0.60,-15.02 501.05,3.35,-15.02 501.60,7.20,-15.02"/>
    </edge>
    <edge id=":F0_11" function="internal">
        <lane id=":F0_11_0" index="0" speed="3.65" length="2.34" shape="494.40,0.00,-15.02 494.00,0.80,-15.02 492.80,1.60,-15.02"/>
    </edge>
    <edge id=":F1_0" function="internal">
        <lane id=":F1_0_0" index="0" speed="100.00" length="14.40" shape="507.20,101.60,8.68 492.80,101.60,8.68"/>
    </edge>
    <edge id=":F1_1" function="internal">
        <lane id=":F1_1_0" index="0" speed="8.00" length="5.93" shape="507.20,101.60,8.68 503.35,101.05,8.68 501.60,100.00,8.68"/>
    </edge>
    <edge id=":F1_2" function="internal">
        <lane id=":F1_2_0" index="0" speed="3.65" length="2.34" shape="507.20,101.60,8.68 506.00,100.80,8.68 505.60,100.00,8.68"/>
    </edge>
    <edge id=":F1_9" function="internal">
        <lane id=":F1_9_0" index="0" speed="8.00" length="8.26" shape="501.60,100.00,8.68 500.60,99.40,8.68 498.95,96.65,8.68 498.40,92.80,8.68"/>
    </edge>
    <edge id=":F1_10" function="internal">
        <lane id=":F1_10_0" index="0" speed="3.65" length="2.34" shape="505.60,100.00,8.68 506.00,99.20,8.68 507.20,98.40,8.68"/>
    </edge>
    <edge id=":F1_3" function="internal">
        <lane id=":F1_3_0" index="0" speed="6.51" length="9.03" shape="501.60,92.80,8.68 501.95,95.25,8.68 503.00,97.00,8.68 504.75,98.05,8.68 507.20,98.40,8.68"/>
    </edge>
    <edge id=":F1_4" function="internal">
        <lane id=":F1_4_0" index="0" speed="8.00" length="14.19" shape="501.60,92.80,8.68 501.05,96.65,8.68 499.40,99.40,8.68 496.65,101.05,8.68 492.80,101.60,8.68"/>
    </edge>
    <edge id=":F1_5" function="internal">
        <lane id=":F1_5_0" index="0" speed="3.65" length="4.67" shape="501.60,92.80,8.68 500.80,94.00,8.68 500.00,94.40,8.68 499.20,94.00,8.68 498.40,92.80,8.68"/>
    </edge>
    <edge id=":F1_6" function="internal">
        <lane id=":F1_6_0" index="0" speed="6.51" length="9.03" shape="492.80,98.40,8.68 495.25,98.05,8.68 497.00,97.00,8.68 498.05,95.25,8.68 498.40,92.80,8.68"/>
    </edge>
    <edge id=":F1_7" function="internal">
        <lane id=":F1_7_0" index="0" speed="100.00" length="14.40" shape="492.80,98.40,8.68 507.20,98.40,8.68"/>
    </edge>
    <edge id=":F1_8" function="internal">
        <lane id=":F1_8_0" index="0" speed="3.65" length="2.34" shape="492.80,98.40,8.68 494.00,99.20,8.68 494.40,100.00,8.68"/>
    </edge>
    <edge id=":F1_11" function="internal">
        <lane id=":F1_11_0" index="0" speed="3.65" length="2.34" shape="494.40,100.00,8.68 494.00,100.80,8.68 492.80,101.60,8.68"/>
    </edge>
    <edge id=":G0_0" function="internal">
        <lane id=":G0_0_0" index="0" speed="6.51" length="9.03" shape="598.40,7.20,-31.30 598.05,4.75,-31.30 597.00,3.00,-31.30 595.25,1.95,-31.30 592.80,1.60,-31.30"/>
    </edge>
    <edge id=":G0_1" function="internal">
        <lane id=":G0_1_0" index="0" speed="8.00" length="14.19" shape="598.40,7.20,-31.30 598.95,3.35,-31.30 600.60,0.60,-31.30 603.35,-1.05,-31.30 607.20,-1.60,-31.30"/>
    </edge>
    <edge id=":G0_2" function="internal">
        <lane id=":G0_2_0" index="0" speed="3.65" length="4.67" shape="598.40,7.20,-31.30 599.20,6.00,-31.30 600.00,5.60,-31.30 600.80,6.00,-31.30 601.60,7.20,-31.30"/>
    </edge>
    <edge id=":G0_3" function="internal">
        <lane id=":G0_3_0" index="0" speed="6.51" length="9.03" shape="607.20,1.60,-31.30 604.75,1.95,-31.30 603.00,3.00,-31.30 601.95,4.75,-31.30 601.60,7.20,-31.30"/>
    </edge>
    <edge id=":G0_4" function="internal">
        <lane id=":G0_4_0" index="0" speed="100.00" length="14.40" shape="607.20,1.60,-31.30 592.80,1.60,-31.30"/>
    </edge>
    <edge id=":G0_5" function="internal">
        <lane id=":G0_5_0" index="0" speed="3.65" length="2.34" shape="607.20,1.60,-31.30 606.00,0.80,-31.30 605.60,0.00,-31.30"/>
    </edge>
    <edge id=":G0_9" function="internal">
        <lane id=":G0_9_0" index="0" speed="3.65" length="2.34" shape="605.60,0.00,-31.30 606.00,-0.80,-31.30 607.20,-1.60,-31.30"/>
    </edge>
    <edge id=":G0_6" function="internal">
        <lane id=":G0_6_0" index="0" speed="100.00" length="14.40" shape="592.80,-1.60,-31.30 607.20,-1.60,-31.30"/>
    </edge>
    <edge id=":G0_7" function="internal">
        <lane id=":G0_7_0" index="0" speed="8.00" length="5.93" shape="592.80,-1.60,-31.30 596.65,-1.05,-31.30 598.40,0.00,-31.30"/>
    </edge>
    <edge id=":G0_8" function="internal">
        <lane id=":G0_8_0" index="0" speed="3.65" length="2.34" shape="592.80,-1.60,-31.30 594.00,-0.80,-31.30 594.40,0.00,-31.30"/>
    </edge>
    <edge id=":G0_10" function="internal">
        <lane id=":G0_10_0" index="0" speed="8.00" length="8.26" shape="598.40,0.00,-31.30 599.40,0.60,-31.30 601.05,3.35,-31.30 601.60,7.20,-31.30"/>
    </edge>
    <edge id=":G0_11" function="internal">
        <lane id=":G0_11_0" index="0" speed="3.65" length="2.34" shape="594.40,0.00,-31.30 594.00,0.80,-31.30 592.80,1.60,-31.30"/>
    </edge>
    <edge id=":G1_0" function="internal">
        <lane id=":G1_0_0" index="0" speed="100.00" length="14.40" shape="607.20,101.60,-7.93 592.80,101.60,-7.93"/>
    </edge>
    <edge id=":G1_1" function="internal">
        <lane id=":G1_1_0" index="0" speed="8.00" length="5.93" shape="607.20,101.60,-7.93 603.35,101.05,-7.93 601.60,100.00,-7.93"/>
    </edge>
    <edge id=":G1_2" function="internal">
        <lane id=":G1_2_0" index="0" speed="3.65" length="2.34" shape="607.20,101.60,-7.93 606.00,100.80,-7.93 605.60,100.00,-7.93"/>
    </edge>
    <edge id=":G1_9" function="internal">
        <lane id=":G1_9_0" index="0" speed="8.00" length="8.26" shape="601.60,100.00,-7.93 600.60,99.40,-7.93 598.95,96.65,-7.93 598.40,92.80,-7.93"/>
    </edge>
    <edge id=":G1_10" function="internal">
        <lane id=":G1_10_0" index="0" speed="3.65" length="2.34" shape="605.60,100.00,-7.93 606.00,99.20,-7.93 607.20,98.40,-7.93"/>
    </edge>
    <edge id=":G1_3" function="internal">
        <lane id=":G1_3_0" index="0" speed="6.51" length="9.03" shape="601.60,92.80,-7.93 601.95,95.25,-7.93 603.00,97.00,-7.93 604.75,98.05,-7.93 607.20,98.40,-7.93"/>
    </edge>
    <edge id=":G1_4" function="internal">
        <lane id=":G1_4_0" index="0" speed="8.00" length="14.19" shape="601.60,92.80,-7.93 601.05,96.65,-7.93 599.40,99.40,-7.93 596.65,101.05,-7.93 592.80,101.60,-7.93"/>
    </edge>
    <edge id=":G1_5" function="internal">
        <lane id=":G1_5_0" index="0" speed="3.65" length="4.67" shape="601.60,92.80,-7.93 600.80,94.00,-7.93 600.00,94.40,-7.93 599.20,94.00,-7.93 598.40,92.80,-7.93"/>
    </edge>
    <edge id=":G1_6" function="internal">
        <lane id=":G1_6_0" index="0" speed="6.51" length="9.03" shape="592.80,98.40,-7.93 595.25,98.05,-7.93 597.00,97.00,-7.93 598.05,95.25,-7.93 598.40,92.80,-7.93"/>
    </edge>
    <edge id=":G1_7" function="internal">
        <lane id=":G1_7_0" index="0" speed="100.00" length="14.40" shape="592.80,98.40,-7.93 607.20,98.40,-7.93"/>
    </edge>
    <edge id=":G1_8" function="internal">