<?xml version="1.0" encoding="UTF-8"?>

<!-- generated on 07/24/20 11:51:55 by Eclipse SUMO netgenerate Version 1.5.0
<configuration xmlns:xsi="http://www.w3.org/2001/XMLSchema-instance" xsi:noNamespaceSchemaLocation="http://sumo.dlr.de/xsd/netgenerateConfiguration.xsd">

    <grid_network>
        <grid value="true"/>
        <grid.x-number value="20"/>
        <grid.y-number value="2"/>
    </grid_network>

    <output>
        <output-file value="2.net.xml"/>
    </output>

    <processing>
        <perturb-x value="10"/>
        <perturb-z value="30"/>
    </processing>

    <random_number>
        <seed value="9726976"/>
    </random_number>

</configuration>
-->

<net version="1.3" junctionCornerDetail="5" limitTurnSpeed="5.50" xmlns:xsi="http://www.w3.org/2001/XMLSchema-instance" xsi:noNamespaceSchemaLocation="http://sumo.dlr.de/xsd/net_file.xsd">

    <location netOffset="-0.56,0.00" convBoundary="0.00,0.00,1908.00,100.00" origBoundary="0.56,0.00,1908.57,100.00" projParameter="!"/>

    <edge id=":A0_0" function="internal">
        <lane id=":A0_0_0" index="0" speed="6.07" length="7.92" shape="-1.53,3.30,23.90 -1.27,1.16,24.16 -0.38,-0.37,24.37 1.13,-1.29,24.59 3.27,-1.60,24.84"/>
    </edge>
    <edge id=":A0_1" function="internal">
        <lane id=":A0_1_0" index="0" speed="3.90" length="2.78" shape="3.27,1.60,24.84 2.56,1.70,24.59 2.05,2.01,24.37 1.76,2.52,24.16 1.67,3.23,23.90"/>
    </edge>
    <edge id=":A1_0" function="internal">
        <lane id=":A1_0_0" index="0" speed="6.08" length="7.73" shape="5.28,101.60,-3.73 3.22,101.31,-3.39 1.73,100.43,-3.10 0.82,98.96,-2.81 0.48,96.90,-2.47"/>
    </edge>
    <edge id=":A1_1" function="internal">
        <lane id=":A1_1_0" index="0" speed="3.91" length="2.83" shape="3.68,96.83,-2.47 3.80,97.52,-2.80 4.10,98.01,-3.09 4.60,98.30,-3.37 5.28,98.40,-3.71"/>
    </edge>
    <edge id=":B0_0" function="internal">
        <lane id=":B0_0_0" index="0" speed="6.74" length="9.33" shape="104.83,7.47,25.50 104.34,4.90,25.49 103.20,3.07,25.48 101.41,1.97,25.47 98.98,1.60,25.46"/>
    </edge>
    <edge id=":B0_1" function="internal">
        <lane id=":B0_1_0" index="0" speed="7.90" length="14.42" shape="104.83,7.47,25.50 105.17,3.50,25.50 106.71,0.67,25.50 109.45,-1.03,25.50 113.39,-1.60,25.50"/>
    </edge>
    <edge id=":B0_2" function="internal">
        <lane id=":B0_2_0" index="0" speed="3.65" length="4.67" shape="104.83,7.47,25.50 105.56,6.23,25.50 106.33,5.78,25.50 107.16,6.13,25.50 108.02,7.29,25.50"/>
    </edge>
    <edge id=":B0_3" function="internal">
        <lane id=":B0_3_0" index="0" speed="6.38" length="9.04" shape="113.39,1.60,25.50 110.92,1.96,25.50 109.20,3.02,25.50 108.24,4.80,25.50 108.02,7.29,25.50"/>
    </edge>
    <edge id=":B0_4" function="internal">
        <lane id=":B0_4_0" index="0" speed="13.89" length="14.41" shape="113.39,1.60,25.50 98.98,1.60,25.46"/>
    </edge>
    <edge id=":B0_5" function="internal">
        <lane id=":B0_5_0" index="0" speed="3.65" length="2.34" shape="113.39,1.60,25.50 112.19,0.80,25.50 111.79,0.00,25.50"/>
    </edge>
    <edge id=":B0_9" function="internal">
        <lane id=":B0_9_0" index="0" speed="3.65" length="2.34" shape="111.79,0.00,25.50 112.19,-0.80,25.50 113.39,-1.60,25.50"/>
    </edge>
    <edge id=":B0_6" function="internal">
        <lane id=":B0_6_0" index="0" speed="13.89" length="14.41" shape="98.98,-1.60,25.46 113.39,-1.60,25.50"/>
    </edge>
    <edge id=":B0_7" function="internal">
        <lane id=":B0_7_0" index="0" speed="8.20" length="5.83" shape="98.98,-1.60,25.46 102.74,-1.04,25.47 104.47,-0.00,25.48"/>
    </edge>
    <edge id=":B0_8" function="internal">
        <lane id=":B0_8_0" index="0" speed="3.65" length="2.34" shape="98.98,-1.60,25.46 100.18,-0.80,25.46 100.58,0.00,25.46"/>
    </edge>
    <edge id=":B0_10" function="internal">
        <lane id=":B0_10_0" index="0" speed="8.20" length="8.45" shape="104.47,-0.00,25.48 105.50,0.62,25.48 107.26,3.40,25.49 108.02,7.29,25.50"/>
    </edge>
    <edge id=":B0_11" function="internal">
        <lane id=":B0_11_0" index="0" speed="3.65" length="2.34" shape="100.58,0.00,25.46 100.18,0.80,25.46 98.98,1.60,25.46"/>
    </edge>
    <edge id=":B1_0" function="internal">
        <lane id=":B1_0_0" index="0" speed="13.89" length="14.41" shape="118.83,101.60,-16.06 104.42,101.60,-15.90"/>
    </edge>
    <edge id=":B1_1" function="internal">
        <lane id=":B1_1_0" index="0" speed="8.20" length="5.83" shape="118.83,101.60,-16.06 115.06,101.04,-16.02 113.33,100.00,-15.99"/>
    </edge>
    <edge id=":B1_2" function="internal">
        <lane id=":B1_2_0" index="0" speed="3.65" length="2.34" shape="118.83,101.60,-16.06 117.63,100.80,-16.06 117.23,100.00,-16.06"/>
    </edge>
    <edge id=":B1_9" function="internal">
        <lane id=":B1_9_0" index="0" speed="8.20" length="8.45" shape="113.33,100.00,-15.99 112.30,99.38,-15.98 110.54,96.60,-15.94 109.78,92.71,-15.90"/>
    </edge>
    <edge id=":B1_10" function="internal">
        <lane id=":B1_10_0" index="0" speed="3.65" length="2.34" shape="117.23,100.00,-16.06 117.63,99.20,-16.06 118.83,98.40,-16.06"/>
    </edge>
    <edge id=":B1_3" function="internal">
        <lane id=":B1_3_0" index="0" speed="6.74" length="9.33" shape="112.98,92.53,-15.90 113.47,95.10,-15.94 114.61,96.93,-15.98 116.40,98.03,-16.02 118.83,98.40,-16.06"/>
    </edge>
    <edge id=":B1_4" function="internal">
        <lane id=":B1_4_0" index="0" speed="7.90" length="14.42" shape="112.98,92.53,-15.90 112.64,96.50,-15.90 111.10,99.33,-15.90 108.36,101.03,-15.90 104.42,101.60,-15.90"/>
    </edge>
    <edge id=":B1_5" function="internal">
        <lane id=":B1_5_0" index="0" speed="3.65" length="4.67" shape="112.98,92.53,-15.90 112.25,93.77,-15.90 111.47,94.22,-15.90 110.65,93.87,-15.90 109.78,92.71,-15.90"/>
    </edge>
    <edge id=":B1_6" function="internal">
        <lane id=":B1_6_0" index="0" speed="6.38" length="9.04" shape="104.42,98.40,-15.90 106.89,98.04,-15.90 108.61,96.98,-15.90 109.57,95.20,-15.90 109.78,92.71,-15.90"/>
    </edge>
    <edge id=":B1_7" function="internal">
        <lane id=":B1_7_0" index="0" speed="13.89" length="14.41" shape="104.42,98.40,-15.90 118.83,98.40,-16.06"/>
    </edge>
    <edge id=":B1_8" function="internal">
        <lane id=":B1_8_0" index="0" speed="3.65" length="2.34" shape="104.42,98.40,-15.90 105.62,99.20,-15.90 106.02,100.00,-15.90"/>
    </edge>
    <edge id=":B1_11" function="internal">
        <lane id=":B1_11_0" index="0" speed="3.65" length="2.34" shape="106.02,100.00,-15.90 105.62,100.80,-15.90 104.42,101.60,-15.90"/>
    </edge>
    <edge id=":C0_0" function="internal">
        <lane id=":C0_0_0" index="0" speed="7.11" length="9.79" shape="188.21,7.84,20.18 187.48,5.11,20.18 186.19,3.16,20.18 184.34,1.99,20.18 181.93,1.60,20.18"/>
    </edge>
    <edge id=":C0_1" function="internal">
        <lane id=":C0_1_0" index="0" speed="7.77" length="14.76" shape="188.21,7.84,20.18 188.21,3.71,20.18 189.58,0.76,20.18 192.31,-1.01,20.18 196.40,-1.60,20.18"/>
    </edge>
    <edge id=":C0_2" function="internal">
        <lane id=":C0_2_0" index="0" speed="3.65" length="4.67" shape="188.21,7.84,20.18 188.83,6.53,20.18 189.56,6.03,20.18 190.41,6.31,20.18 191.37,7.39,20.18"/>
    </edge>
    <edge id=":C0_3" function="internal">
        <lane id=":C0_3_0" index="0" speed="6.22" length="9.05" shape="196.40,1.60,20.18 193.89,1.96,20.18 192.22,3.05,20.18 191.38,4.85,20.18 191.37,7.39,20.18"/>
    </edge>
    <edge id=":C0_4" function="internal">
        <lane id=":C0_4_0" index="0" speed="13.89" length="14.46" shape="196.40,1.60,20.18 181.93,1.60,20.18"/>
    </edge>
    <edge id=":C0_5" function="internal">
        <lane id=":C0_5_0" index="0" speed="3.65" length="2.34" shape="196.40,1.60,20.18 195.20,0.80,20.18 194.80,0.00,20.18"/>
    </edge>
    <edge id=":C0_9" function="internal">
        <lane id=":C0_9_0" index="0" speed="3.65" length="2.34" shape="194.80,0.00,20.18 195.20,-0.80,20.18 196.40,-1.60,20.18"/>
    </edge>
    <edge id=":C0_6" function="internal">
        <lane id=":C0_6_0" index="0" speed="13.89" length="14.46" shape="181.93,-1.60,20.18 196.40,-1.60,20.18"/>
    </edge>
    <edge id=":C0_7" function="internal">
        <lane id=":C0_7_0" index="0" speed="8.51" length="5.71" shape="181.93,-1.60,20.18 185.58,-1.04,20.18 187.30,-0.00,20.18"/>
    </edge>
    <edge id=":C0_8" function="internal">
        <lane id=":C0_8_0" index="0" speed="3.65" length="2.34" shape="181.93,-1.60,20.18 183.13,-0.80,20.18 183.53,0.00,20.18"/>
    </edge>
    <edge id=":C0_10" function="internal">
        <lane id=":C0_10_0" index="0" speed="8.51" length="8.73" shape="187.30,-0.00,20.18 188.38,0.65,20.18 190.30,3.45,20.18 191.37,7.39,20.18"/>
    </edge>
    <edge id=":C0_11" function="internal">
        <lane id=":C0_11_0" index="0" speed="3.65" length="2.34" shape="183.53,0.00,20.18 183.13,0.80,20.18 181.93,1.60,20.18"/>
    </edge>
    <edge id=":C1_0" function="internal">
        <lane id=":C1_0_0" index="0" speed="13.89" length="14.47" shape="209.69,101.60,-18.03 195.22,101.60,-17.85"/>
    </edge>
    <edge id=":C1_1" function="internal">
        <lane id=":C1_1_0" index="0" speed="8.51" length="5.71" shape="209.69,101.60,-18.03 206.03,101.04,-18.03 204.31,100.00,-18.03"/>
    </edge>
    <edge id=":C1_2" function="internal">
        <lane id=":C1_2_0" index="0" speed="3.65" length="2.34" shape="209.69,101.60,-18.03 208.49,100.80,-18.03 208.09,100.00,-18.03"/>
    </edge>
    <edge id=":C1_9" function="internal">
        <lane id=":C1_9_0" index="0" speed="8.51" length="8.73" shape="204.31,100.00,-18.03 203.24,99.35,-18.03 201.31,96.55,-18.03 200.24,92.61,-18.03"/>
    </edge>
    <edge id=":C1_10" function="internal">
        <lane id=":C1_10_0" index="0" speed="3.65" length="2.34" shape="208.09,100.00,-18.03 208.49,99.20,-18.03 209.69,98.40,-18.03"/>
    </edge>
    <edge id=":C1_3" function="internal">
        <lane id=":C1_3_0" index="0" speed="7.11" length="9.79" shape="203.41,92.16,-18.03 204.14,94.89,-18.03 205.42,96.84,-18.03 207.27,98.01,-18.03 209.69,98.40,-18.03"/>
    </edge>
    <edge id=":C1_4" function="internal">
        <lane id=":C1_4_0" index="0" speed="7.77" length="14.76" shape="203.41,92.16,-18.03 203.40,96.29,-17.98 202.03,99.24,-17.94 199.31,101.01,-17.90 195.22,101.60,-17.85"/>
    </edge>
    <edge id=":C1_5" function="internal">
        <lane id=":C1_5_0" index="0" speed="3.65" length="4.67" shape="203.41,92.16,-18.03 202.79,93.47,-18.03 202.05,93.97,-18.03 201.20,93.69,-18.03 200.24,92.61,-18.03"/>
    </edge>
    <edge id=":C1_6" function="internal">
        <lane id=":C1_6_0" index="0" speed="6.22" length="9.05" shape="195.22,98.40,-17.85 197.73,98.04,-17.90 199.40,96.95,-17.94 200.24,95.15,-17.98 200.24,92.61,-18.03"/>
    </edge>
    <edge id=":C1_7" function="internal">
        <lane id=":C1_7_0" index="0" speed="13.89" length="14.47" shape="195.22,98.40,-17.85 209.69,98.40,-18.03"/>
    </edge>
    <edge id=":C1_8" function="internal">
        <lane id=":C1_8_0" index="0" speed="3.65" length="2.34" shape="195.22,98.40,-17.85 196.42,99.20,-17.85 196.82,100.00,-17.85"/>
    </edge>
    <edge id=":C1_11" function="internal">
        <lane id=":C1_11_0" index="0" speed="3.65" length="2.34" shape="196.82,100.00,-17.85 196.42,100.80,-17.85 195.22,101.60,-17.85"/>
    </edge>
    <edge id=":D0_0" function="internal">
        <lane id=":D0_0_0" index="0" speed="6.83" length="9.45" shape="295.27,7.57,-37.56 294.71,4.96,-37.56 293.54,3.09,-37.56 291.73,1.97,-37.56 289.31,1.60,-37.56"/>
    </edge>
    <edge id=":D0_1" function="internal">
        <lane id=":D0_1_0" index="0" speed="7.86" length="14.51" shape="295.27,7.57,-37.56 295.52,3.56,-37.56 297.01,0.69,-37.56 299.75,-1.03,-37.56 303.73,-1.60,-37.56"/>
    </edge>
    <edge id=":D0_2" function="internal">
        <lane id=":D0_2_0" index="0" speed="3.65" length="4.67" shape="295.27,7.57,-37.56 295.97,6.31,-37.56 296.73,5.85,-37.56 297.56,6.18,-37.56 298.46,7.32,-37.56"/>
    </edge>
    <edge id=":D0_3" function="internal">
        <lane id=":D0_3_0" index="0" speed="6.34" length="9.04" shape="303.73,1.60,-37.56 301.25,1.96,-37.56 299.54,3.03,-37.56 298.61,4.81,-37.56 298.46,7.32,-37.56"/>
    </edge>
    <edge id=":D0_4" function="internal">
        <lane id=":D0_4_0" index="0" speed="13.89" length="14.42" shape="303.73,1.60,-37.56 289.31,1.60,-37.56"/>
    </edge>
    <edge id=":D0_5" function="internal">
        <lane id=":D0_5_0" index="0" speed="3.65" length="2.34" shape="303.73,1.60,-37.56 302.53,0.80,-37.56 302.13,0.00,-37.56"/>
    </edge>
    <edge id=":D0_9" function="internal">
        <lane id=":D0_9_0" index="0" speed="3.65" length="2.34" shape="302.13,0.00,-37.56 302.53,-0.80,-37.56 303.73,-1.60,-37.56"/>
    </edge>
    <edge id=":D0_6" function="internal">
        <lane id=":D0_6_0" index="0" speed="13.89" length="14.42" shape="289.31,-1.60,-37.56 303.73,-1.60,-37.56"/>
    </edge>
    <edge id=":D0_7" function="internal">
        <lane id=":D0_7_0" index="0" speed="8.28" length="5.79" shape="289.31,-1.60,-37.56 293.04,-1.04,-37.56 294.77,0.00,-37.56"/>
    </edge>
    <edge id=":D0_8" function="internal">
        <lane id=":D0_8_0" index="0" speed="3.65" length="2.34" shape="289.31,-1.60,-37.56 290.51,-0.80,-37.56 290.91,0.00,-37.56"/>
    </edge>
    <edge id=":D0_10" function="internal">
        <lane id=":D0_10_0" index="0" speed="8.28" length="8.53" shape="294.77,0.00,-37.56 295.81,0.63,-37.56 297.61,3.41,-37.56 298.46,7.32,-37.56"/>
    </edge>
    <edge id=":D0_11" function="internal">
        <lane id=":D0_11_0" index="0" speed="3.65" length="2.34" shape="290.91,0.00,-37.56 290.51,0.80,-37.56 289.31,1.60,-37.56"/>
    </edge>
    <edge id=":D1_0" function="internal">
        <lane id=":D1_0_0" index="0" speed="13.89" length="14.42" shape="311.26,101.60,-11.54 296.84,101.60,-11.54"/>
    </edge>
    <edge id=":D1_1" function="internal">
        <lane id=":D1_1_0" index="0" speed="8.28" length="5.79" shape="311.26,101.60,-11.54 307.53,101.04,-11.54 305.80,100.00,-11.54"/>
    </edge>
    <edge id=":D1_2" function="internal">
        <lane id=":D1_2_0" index="0" speed="3.65" length="2.34" shape="311.26,101.60,-11.54 310.06,100.80,-11.54 309.66,100.00,-11.54"/>
    </edge>
    <edge id=":D1_9" function="internal">
        <lane id=":D1_9_0" index="0" speed="8.28" length="8.53" shape="305.80,100.00,-11.54 304.76,99.37,-11.54 302.95,96.59,-11.54 302.11,92.68,-11.54"/>
    </edge>
    <edge id=":D1_10" function="internal">
        <lane id=":D1_10_0" index="0" speed="3.65" length="2.34" shape="309.66,100.00,-11.54 310.06,99.20,-11.54 311.26,98.40,-11.54"/>
    </edge>
    <edge id=":D1_3" function="internal">
        <lane id=":D1_3_0" index="0" speed="6.83" length="9.45" shape="305.30,92.43,-11.54 305.85,95.04,-11.54 307.03,96.91,-11.54 308.83,98.03,-11.54 311.26,98.40,-11.54"/>
    </edge>
    <edge id=":D1_4" function="internal">
        <lane id=":D1_4_0" index="0" speed="7.86" length="14.51" shape="305.30,92.43,-11.54 305.05,96.44,-11.54 303.55,99.31,-11.54 300.82,101.03,-11.54 296.84,101.60,-11.54"/>
    </edge>
    <edge id=":D1_5" function="internal">
        <lane id=":D1_5_0" index="0" speed="3.65" length="4.67" shape="305.30,92.43,-11.54 304.60,93.69,-11.54 303.83,94.15,-11.54 303.01,93.82,-11.54 302.11,92.68,-11.54"/>
    </edge>
    <edge id=":D1_6" function="internal">
        <lane id=":D1_6_0" index="0" speed="6.34" length="9.04" shape="296.84,98.40,-11.54 299.32,98.04,-11.54 301.02,96.97,-11.54 301.95,95.19,-11.54 302.11,92.68,-11.54"/>
    </edge>
    <edge id=":D1_7" function="internal">
        <lane id=":D1_7_0" index="0" speed="13.89" length="14.42" shape="296.84,98.40,-11.54 311.26,98.40,-11.54"/>
    </edge>
    <edge id=":D1_8" function="internal">
        <lane id=":D1_8_0" index="0" speed="3.65" length="2.34" shape="296.84,98.40,-11.54 298.04,99.20,-11.54 298.44,100.00,-11.54"/>
    </edge>
    <edge id=":D1_11" function="internal">
        <lane id=":D1_11_0" index="0" speed="3.65" length="2.34" shape="298.44,100.00,-11.54 298.04,100.80,-11.54 296.84,101.60,-11.54"/>
    </edge>
    <edge id=":E0_0" function="internal">
        <lane id=":E0_0_0" index="0" speed="6.59" length="9.13" shape="397.04,7.29,-5.20 396.64,4.80,-5.20 395.56,3.02,-5.20 393.80,1.96,-5.20 391.36,1.60,-5.20"/>
    </edge>
    <edge id=":E0_1" function="internal">
        <lane id=":E0_1_0" index="0" speed="7.97" length="14.27" shape="397.04,7.29,-5.20 397.52,3.40,-5.20 399.13,0.62,-5.20 401.88,-1.04,-5.20 405.76,-1.60,-5.20"/>
    </edge>
    <edge id=":E0_2" function="internal">
        <lane id=":E0_2_0" index="0" speed="3.65" length="4.67" shape="397.04,7.29,-5.20 397.82,6.08,-5.20 398.61,5.66,-5.20 399.42,6.05,-5.20 400.24,7.23,-5.20"/>
    </edge>
    <edge id=":E0_3" function="internal">
        <lane id=":E0_3_0" index="0" speed="6.46" length="9.03" shape="405.76,1.60,-5.20 403.30,1.95,-5.20 401.56,3.01,-5.20 400.54,4.77,-5.20 400.24,7.23,-5.20"/>
    </edge>
    <edge id=":E0_4" function="internal">
        <lane id=":E0_4_0" index="0" speed="13.89" length="14.40" shape="405.76,1.60,-5.20 391.36,1.60,-5.20"/>
    </edge>
    <edge id=":E0_5" function="internal">
        <lane id=":E0_5_0" index="0" speed="3.65" length="2.34" shape="405.76,1.60,-5.20 404.56,0.80,-5.20 404.16,0.00,-5.20"/>
    </edge>
    <edge id=":E0_9" function="internal">
        <lane id=":E0_9_0" index="0" speed="3.65" length="2.34" shape="404.16,0.00,-5.20 404.56,-0.80,-5.20 405.76,-1.60,-5.20"/>
    </edge>
    <edge id=":E0_6" function="internal">
        <lane id=":E0_6_0" index="0" speed="13.89" length="14.40" shape="391.36,-1.60,-5.20 405.76,-1.60,-5.20"/>
    </edge>
    <edge id=":E0_7" function="internal">
        <lane id=":E0_7_0" index="0" speed="8.07" length="5.89" shape="391.36,-1.60,-5.20 395.18,-1.05,-5.20 396.92,0.00,-5.20"/>
    </edge>
    <edge id=":E0_8" function="internal">
        <lane id=":E0_8_0" index="0" speed="3.65" length="2.34" shape="391.36,-1.60,-5.20 392.56,-0.80,-5.20 392.96,0.00,-5.20"/>
    </edge>
    <edge id=":E0_10" function="internal">
        <lane id=":E0_10_0" index="0" speed="8.07" length="8.33" shape="396.92,0.00,-5.20 397.93,0.61,-5.20 399.62,3.37,-5.20 400.24,7.23,-5.20"/>
    </edge>
    <edge id=":E0_11" function="internal">
        <lane id=":E0_11_0" index="0" speed="3.65" length="2.34" shape="392.96,0.00,-5.20 392.56,0.80,-5.20 391.36,1.60,-5.20"/>
    </edge>
    <edge id=":E1_0" function="internal">
        <lane id=":E1_0_0" index="0" speed="13.89" length="14.40" shape="407.62,101.60,-23.59 393.21,101.60,-23.59"/>
    </edge>
    <edge id=":E1_1" function="internal">
        <lane id=":E1_1_0" index="0" speed="8.07" length="5.89" shape="407.62,101.60,-23.59 403.80,101.05,-23.59 402.05,100.00,-23.59"/>
    </edge>
    <edge id=":E1_2" function="internal">
        <lane id=":E1_2_0" index="0" speed="3.65" length="2.34" shape="407.62,101.60,-23.59 406.42,100.80,-23.59 406.02,100.00,-23.59"/>
    </edge>
    <edge id=":E1_9" function="internal">
        <lane id=":E1_9_0" index="0" speed="8.07" length="8.33" shape="402.05,100.00,-23.59 401.04,99.39,-23.59 399.36,96.63,-23.59 398.73,92.77,-23.59"/>
    </edge>
    <edge id=":E1_10" function="internal">
        <lane id=":E1_10_0" index="0" speed="3.65" length="2.34" shape="406.02,100.00,-23.59 406.42,99.20,-23.59 407.62,98.40,-23.59"/>
    </edge>
    <edge id=":E1_3" function="internal">
        <lane id=":E1_3_0" index="0" speed="6.59" length="9.13" shape="401.93,92.71,-23.59 402.33,95.20,-23.59 403.41,96.98,-23.59 405.17,98.04,-23.59 407.62,98.40,-23.59"/>
    </edge>
    <edge id=":E1_4" function="internal">
        <lane id=":E1_4_0" index="0" speed="7.97" length="14.27" shape="401.93,92.71,-23.59 401.46,96.60,-23.59 399.84,99.38,-23.59 397.10,101.04,-23.59 393.21,101.60,-23.59"/>
    </edge>
    <edge id=":E1_5" function="internal">
        <lane id=":E1_5_0" index="0" speed="3.65" length="4.67" shape="401.93,92.71,-23.59 401.16,93.92,-23.59 400.37,94.34,-23.59 399.56,93.95,-23.59 398.73,92.77,-23.59"/>
    </edge>
    <edge id=":E1_6" function="internal">
        <lane id=":E1_6_0" index="0" speed="6.46" length="9.03" shape="393.21,98.40,-23.59 395.67,98.05,-23.59 397.41,96.99,-23.59 398.43,95.23,-23.59 398.73,92.77,-23.59"/>
    </edge>
    <edge id=":E1_7" function="internal">
        <lane id=":E1_7_0" index="0" speed="13.89" length="14.40" shape="393.21,98.40,-23.59 407.62,98.40,-23.59"/>
    </edge>
    <edge id=":E1_8" function="internal">
        <lane id=":E1_8_0" index="0" speed="3.65" length="2.34" shape="393.21,98.40,-23.59 394.41,99.20,-23.59 394.81,100.00,-23.59"/>
    </edge>
    <edge id=":E1_11" function="internal">
        <lane id=":E1_11_0" index="0" speed="3.65" length="2.34" shape="394.81,100.00,-23.59 394.41,100.80,-23.59 393.21,101.60,-23.59"/>
    </edge>
    <edge id=":F0_0" function="internal">
        <lane id=":F0_0_0" index="0" speed="6.75" length="9.35" shape="491.72,7.48,-21.09 491.22,4.91,-21.09 490.08,3.07,-21.09 488.29,1.97,-21.09 485.86,1.60,-21.09"/>
    </edge>
    <edge id=":F0_1" function="internal">
        <lane id=":F0_1_0" index="0" speed="7.90" length="14.43" shape="491.72,7.48,-21.09 492.05,3.51,-21.04 493.58,0.67,-21.00 496.32,-1.03,-20.96 500.27,-1.60,-20.91"/>
    </edge>
    <edge id=":F0_2" function="internal">
        <lane id=":F0_2_0" index="0" speed="3.65" length="4.67" shape="491.72,7.48,-21.09 492.45,6.24,-21.09 493.22,5.79,-21.09 494.04,6.14,-21.09 494.92,7.29,-21.09"/>
    </edge>
    <edge id=":F0_3" function="internal">
        <lane id=":F0_3_0" index="0" speed="6.38" length="9.04" shape="500.27,1.60,-20.91 497.80,1.96,-20.96 496.08,3.02,-21.00 495.12,4.80,-21.04 494.92,7.29,-21.09"/>
    </edge>
    <edge id=":F0_4" function="internal">
        <lane id=":F0_4_0" index="0" speed="13.89" length="14.41" shape="500.27,1.60,-20.91 485.86,1.60,-21.09"/>
    </edge>
    <edge id=":F0_5" function="internal">
        <lane id=":F0_5_0" index="0" speed="3.65" length="2.34" shape="500.27,1.60,-20.91 499.07,0.80,-20.91 498.67,0.00,-20.91"/>
    </edge>
    <edge id=":F0_9" function="internal">
        <lane id=":F0_9_0" index="0" speed="3.65" length="2.34" shape="498.67,0.00,-20.91 499.07,-0.80,-20.91 500.27,-1.60,-20.91"/>
    </edge>
    <edge id=":F0_6" function="internal">
        <lane id=":F0_6_0" index="0" speed="13.89" length="14.41" shape="485.86,-1.60,-21.09 500.27,-1.60,-20.91"/>
    </edge>
    <edge id=":F0_7" function="internal">
        <lane id=":F0_7_0" index="0" speed="8.20" length="5.82" shape="485.86,-1.60,-21.09 489.62,-1.04,-21.09 491.35,0.00,-21.09"/>
    </edge>
    <edge id=":F0_8" function="internal">
        <lane id=":F0_8_0" index="0" speed="3.65" length="2.34" shape="485.86,-1.60,-21.09 487.06,-0.80,-21.09 487.46,0.00,-21.09"/>
    </edge>
    <edge id=":F0_10" function="internal">
        <lane id=":F0_10_0" index="0" speed="8.20" length="8.46" shape="491.35,0.00,-21.09 492.38,0.62,-21.09 494.15,3.40,-21.09 494.92,7.29,-21.09"/>
    </edge>
    <edge id=":F0_11" function="internal">
        <lane id=":F0_11_0" index="0" speed="3.65" length="2.34" shape="487.46,0.00,-21.09 487.06,0.80,-21.09 485.86,1.60,-21.09"/>
    </edge>
    <edge id=":F1_0" function="internal">
        <lane id=":F1_0_0" index="0" speed="13.89" length="14.41" shape="505.93,101.60,-13.98 491.52,101.60,-13.98"/>
    </edge>
    <edge id=":F1_1" function="internal">
        <lane id=":F1_1_0" index="0" speed="8.20" length="5.82" shape="505.93,101.60,-13.98 502.17,101.04,-13.98 500.44,100.00,-13.98"/>
    </edge>
    <edge id=":F1_2" function="internal">
        <lane id=":F1_2_0" index="0" speed="3.65" length="2.34" shape="505.93,101.60,-13.98 504.73,100.80,-13.98 504.33,100.00,-13.98"/>
    </edge>
    <edge id=":F1_9" function="internal">
        <lane id=":F1_9_0" index="0" speed="8.20" length="8.46" shape="500.44,100.00,-13.98 499.41,99.38,-13.98 497.64,96.60,-13.98 496.88,92.71,-13.98"/>
    </edge>
    <edge id=":F1_10" function="internal">
        <lane id=":F1_10_0" index="0" speed="3.65" length="2.34" shape="504.33,100.00,-13.98 504.73,99.20,-13.98 505.93,98.40,-13.98"/>
    </edge>
    <edge id=":F1_3" function="internal">
        <lane id=":F1_3_0" index="0" speed="6.75" length="9.35" shape="500.07,92.52,-13.98 500.57,95.09,-13.98 501.71,96.93,-13.98 503.50,98.03,-13.98 505.93,98.40,-13.98"/>
    </edge>
    <edge id=":F1_4" function="internal">
        <lane id=":F1_4_0" index="0" speed="7.90" length="14.43" shape="500.07,92.52,-13.98 499.74,96.49,-13.98 498.21,99.33,-13.98 495.47,101.03,-13.98 491.52,101.60,-13.98"/>
    </edge>
    <edge id=":F1_5" function="internal">
        <lane id=":F1_5_0" index="0" speed="3.65" length="4.67" shape="500.07,92.52,-13.98 499.35,93.76,-13.98 498.57,94.21,-13.98 497.75,93.86,-13.98 496.88,92.71,-13.98"/>
    </edge>
    <edge id=":F1_6" function="internal">
        <lane id=":F1_6_0" index="0" speed="6.38" length="9.04" shape="491.52,98.40,-13.98 493.99,98.04,-13.98 495.71,96.98,-13.98 496.67,95.20,-13.98 496.88,92.71,-13.98"/>
    </edge>
    <edge id=":F1_7" function="internal">
        <lane id=":F1_7_0" index="0" speed="13.89" length="14.41" shape="491.52,98.40,-13.98 505.93,98.40,-13.98"/>
    </edge>
    <edge id=":F1_8" function="internal">
        <lane id=":F1_8_0" index="0" speed="3.65" length="2.34" shape="491.52,98.40,-13.98 492.72,99.20,-13.98 493.12,100.00,-13.98"/>
    </edge>
    <edge id=":F1_11" function="internal">
        <lane id=":F1_11_0" index="0" speed="3.65" length="2.34" shape="493.12,100.00,-13.98 492.72,100.80,-13.98 491.52,101.60,-13.98"/>
    </edge>
    <edge id=":G0_0" function="internal">
        <lane id=":G0_0_0" index="0" speed="6.93" length="9.57" shape="592.05,7.67,-18.62 591.43,5.01,-18.67 590.22,3.12,-18.71 588.40,1.98,-18.75 585.98,1.60,-18.79"/>
    </edge>
    <edge id=":G0_1" function="internal">
        <lane id=":G0_1_0" index="0" speed="7.83" length="14.59" shape="592.05,7.67,-18.62 592.21,3.61,-18.62 593.66,0.72,-18.62 596.40,-1.02,-18.62 600.41,-1.60,-18.62"/>
    </edge>
    <edge id=":G0_2" function="internal">
        <lane id=":G0_2_0" index="0" speed="3.65" length="4.67" shape="592.05,7.67,-18.62 592.72,6.39,-18.62 593.47,5.91,-18.62 594.31,6.23,-18.62 595.23,7.34,-18.62"/>
    </edge>
    <edge id=":G0_3" function="internal">
        <lane id=":G0_3_0" index="0" speed="6.30" length="9.04" shape="600.41,1.60,-18.62 597.93,1.96,-18.62 596.23,3.04,-18.62 595.33,4.83,-18.62 595.23,7.34,-18.62"/>
    </edge>
    <edge id=":G0_4" function="internal">
        <lane id=":G0_4_0" index="0" speed="13.89" length="14.43" shape="600.41,1.60,-18.62 585.98,1.60,-18.79"/>
    </edge>
    <edge id=":G0_5" function="internal">
        <lane id=":G0_5_0" index="0" speed="3.65" length="2.34" shape="600.41,1.60,-18.62 599.21,0.80,-18.62 598.81,0.00,-18.62"/>
    </edge>
    <edge id=":G0_9" function="internal">
        <lane id=":G0_9_0" index="0" speed="3.65" length="2.34" shape="598.81,0.00,-18.62 599.21,-0.80,-18.62 600.41,-1.60,-18.62"/>
    </edge>
    <edge id=":G0_6" function="internal">
        <lane id=":G0_6_0" index="0" speed="13.89" length="14.43" shape="585.98,-1.60,-18.79 600.41,-1.60,-18.62"/>
    </edge>
    <edge id=":G0_7" function="internal">
        <lane id=":G0_7_0" index="0" speed="8.36" length="5.76" shape="585.98,-1.60,-18.79 589.68,-1.04,-18.75 591.41,-0.00,-18.72"/>
    </edge>
    <edge id=":G0_8" function="internal">
        <lane id=":G0_8_0" index="0" speed="3.65" length="2.34" shape="585.98,-1.60,-18.79 587.18,-0.80,-18.79 587.58,0.00,-18.79"/>
    </edge>
    <edge id=":G0_10" function="internal">
        <lane id=":G0_10_0" index="0" speed="8.36" length="8.60" shape="591.41,-0.00,-18.72 592.46,0.64,-18.71 594.31,3.43,-18.67 595.23,7.34,-18.62"/>
    </edge>
    <edge id=":G0_11" function="internal">
        <lane id=":G0_11_0" index="0" speed="3.65" length="2.34" shape="587.58,0.00,-18.79 587.18,0.80,-18.79 585.98,1.60,-18.79"/>
    </edge>
    <edge id=":G1_0" function="internal">
        <lane id=":G1_0_0" index="0" speed="13.89" length="14.43" shape="609.98,101.60,-41.17 595.55,101.60,-41.17"/>
    </edge>
    <edge id=":G1_1" function="internal">
        <lane id=":G1_1_0" index="0" speed="8.36" length="5.76" shape="609.98,101.60,-41.17 606.28,101.04,-41.17 604.56,100.00,-41.17"/>
    </edge>
    <edge id=":G1_2" function="internal">
        <lane id=":G1_2_0" index="0" speed="3.65" length="2.34" shape="609.98,101.60,-41.17 608.78,100.80,-41.17 608.38,100.00,-41.17"/>
    </edge>
    <edge id=":G1_9" function="internal">
        <lane id=":G1_9_0" index="0" speed="8.36" length="8.60" shape="604.56,100.00,-41.17 603.50,99.36,-41.17 601.66,96.57,-41.17 600.74,92.66,-41.17"/>
    </edge>
    <edge id=":G1_10" function="internal">
        <lane id=":G1_10_0" index="0" speed="3.65" length="2.34" shape="608.38,100.00,-41.17 608.78,99.20,-41.17 609.98,98.40,-41.17"/>
    </edge>
    <edge id=":G1_3" function="internal">
        <lane id=":G1_3_0" index="0" speed="6.93" length="9.57" shape="603.92,92.33,-41.17 604.53,94.99,-41.17 605.75,96.88,-41.17 607.56,98.02,-41.17 609.98,98.40,-41.17"/>
    </edge>
    <edge id=":G1_4" function="internal">
        <lane id=":G1_4_0" index="0" speed="7.83" length="14.59" shape="603.92,92.33,-41.17 603.75,96.39,-41.17 602.30,99.28,-41.17 599.57,101.02,-41.17 595.55,101.60,-41.17"/>
    </edge>
    <edge id=":G1_5" function="internal">
        <lane id=":G1_5_0" index="0" speed="3.65" length="4.67" shape="603.92,92.33,-41.17 603.24,93.61,-41.17 602.49,94.09,-41.17 601.65,93.77,-41.17 600.74,92.66,-41.17"/>
    </edge>
    <edge id=":G1_6" function="internal">
        <lane id=":G1_6_0" index="0" speed="6.30" length="9.04" shape="595.55,98.40,-41.17 598.04,98.04,-41.17 599.73,96.96,-41.17 600.63,95.17,-41.17 600.74,92.66,-41.17"/>
    </edge>
    <edge id=":G1_7" function="internal">