<?xml version="1.0" encoding="UTF-8"?>

<!-- generated on Fri Nov  6 10:50:41 2020 by Eclipse SUMO netgenerate Version 1.7.0
<configuration xmlns:xsi="http://www.w3.org/2001/XMLSchema-instance" xsi:noNamespaceSchemaLocation="http://sumo.dlr.de/xsd/netgenerateConfiguration.xsd">

    <grid_network>
        <grid value="true"/>
        <grid.x-number value="301"/>
        <grid.y-number value="2"/>
    </grid_network>

    <output>
        <output-file value="25.net.xml"/>
    </output>

    <processing>
        <perturb-z value="7"/>
    </processing>

    <building_defaults>
        <default.speed value="100"/>
    </building_defaults>

    <random_number>
        <seed value="82331445"/>
    </random_number>

</configuration>
-->

<net version="1.6" junctionCornerDetail="5" limitTurnSpeed="5.50" xmlns:xsi="http://www.w3.org/2001/XMLSchema-instance" xsi:noNamespaceSchemaLocation="http://sumo.dlr.de/xsd/net_file.xsd">

    <location netOffset="0.00,0.00" convBoundary="0.00,0.00,30000.00,100.00" origBoundary="0.00,0.00,30000.00,100.00" projParameter="!"/>

    <edge id=":AA0_0" function="internal">
        <lane id=":AA0_0_0" index="0" speed="6.08" length="7.74" shape="-1.60,3.20,1.62 -1.30,1.10,1.66 -0.40,-0.40,1.69 1.10,-1.30,1.73 3.20,-1.60,1.77"/>
    </edge>
    <edge id=":AA0_1" function="internal">
        <lane id=":AA0_1_0" index="0" speed="3.90" length="2.58" shape="3.20,1.60,1.77 2.50,1.70,1.73 2.00,2.00,1.69 1.70,2.50,1.66 1.60,3.20,1.62"/>
    </edge>
    <edge id=":AA1_0" function="internal">
        <lane id=":AA1_0_0" index="0" speed="6.08" length="7.74" shape="3.20,101.60,-0.66 1.10,101.30,-0.68 -0.40,100.40,-0.69 -1.30,98.90,-0.71 -1.60,96.80,-0.72"/>
    </edge>
    <edge id=":AA1_1" function="internal">
        <lane id=":AA1_1_0" index="0" speed="3.90" length="2.58" shape="1.60,96.80,-0.72 1.70,97.50,-0.71 2.00,98.00,-0.70 2.50,98.30,-0.68 3.20,98.40,-0.67"/>
    </edge>
    <edge id=":AB0_0" function="internal">
        <lane id=":AB0_0_0" index="0" speed="6.51" length="9.03" shape="98.40,7.20,3.97 98.05,4.75,3.93 97.00,3.00,3.90 95.25,1.95,3.87 92.80,1.60,3.84"/>
    </edge>
    <edge id=":AB0_1" function="internal">
        <lane id=":AB0_1_0" index="0" speed="8.00" length="14.19" shape="98.40,7.20,3.97 98.95,3.35,3.98 100.60,0.60,3.98 103.35,-1.05,3.99 107.20,-1.60,4.00"/>
    </edge>
    <edge id=":AB0_2" function="internal">
        <lane id=":AB0_2_0" index="0" speed="3.65" length="4.67" shape="98.40,7.20,3.97 99.20,6.00,3.97 100.00,5.60,3.97 100.80,6.00,3.97 101.60,7.20,3.97"/>
    </edge>
    <edge id=":AB0_3" function="internal">
        <lane id=":AB0_3_0" index="0" speed="6.51" length="9.03" shape="107.20,1.60,4.00 104.75,1.95,3.99 103.00,3.00,3.98 101.95,4.75,3.98 101.60,7.20,3.97"/>
    </edge>
    <edge id=":AB0_4" function="internal">
        <lane id=":AB0_4_0" index="0" speed="100.00" length="14.40" shape="107.20,1.60,4.00 92.80,1.60,3.84"/>
    </edge>
    <edge id=":AB0_5" function="internal">
        <lane id=":AB0_5_0" index="0" speed="3.65" length="2.34" shape="107.20,1.60,4.00 106.00,0.80,4.00 105.60,0.00,4.00"/>
    </edge>
    <edge id=":AB0_9" function="internal">
        <lane id=":AB0_9_0" index="0" speed="3.65" length="2.34" shape="105.60,0.00,4.00 106.00,-0.80,4.00 107.20,-1.60,4.00"/>
    </edge>
    <edge id=":AB0_6" function="internal">
        <lane id=":AB0_6_0" index="0" speed="100.00" length="14.40" shape="92.80,-1.60,3.84 107.20,-1.60,4.00"/>
    </edge>
    <edge id=":AB0_7" function="internal">
        <lane id=":AB0_7_0" index="0" speed="8.00" length="5.93" shape="92.80,-1.60,3.84 96.65,-1.05,3.87 98.40,-0.00,3.89"/>
    </edge>
    <edge id=":AB0_8" function="internal">
        <lane id=":AB0_8_0" index="0" speed="3.65" length="2.34" shape="92.80,-1.60,3.84 94.00,-0.80,3.84 94.40,0.00,3.84"/>
    </edge>
    <edge id=":AB0_10" function="internal">
        <lane id=":AB0_10_0" index="0" speed="8.00" length="8.26" shape="98.40,-0.00,3.89 99.40,0.60,3.90 101.05,3.35,3.93 101.60,7.20,3.97"/>
    </edge>
    <edge id=":AB0_11" function="internal">
        <lane id=":AB0_11_0" index="0" speed="3.65" length="2.34" shape="94.40,0.00,3.84 94.00,0.80,3.84 92.80,1.60,3.84"/>
    </edge>
    <edge id=":AB1_0" function="internal">
        <lane id=":AB1_0_0" index="0" speed="100.00" length="14.40" shape="107.20,101.60,3.46 92.80,101.60,3.46"/>
    </edge>
    <edge id=":AB1_1" function="internal">
        <lane id=":AB1_1_0" index="0" speed="8.00" length="5.93" shape="107.20,101.60,3.46 103.35,101.05,3.47 101.60,100.00,3.48"/>
    </edge>
    <edge id=":AB1_2" function="internal">
        <lane id=":AB1_2_0" index="0" speed="3.65" length="2.34" shape="107.20,101.60,3.46 106.00,100.80,3.46 105.60,100.00,3.46"/>
    </edge>
    <edge id=":AB1_9" function="internal">
        <lane id=":AB1_9_0" index="0" speed="8.00" length="8.26" shape="101.60,100.00,3.48 100.60,99.40,3.48 98.95,96.65,3.49 98.40,92.80,3.50"/>
    </edge>
    <edge id=":AB1_10" function="internal">
        <lane id=":AB1_10_0" index="0" speed="3.65" length="2.34" shape="105.60,100.00,3.46 106.00,99.20,3.46 107.20,98.40,3.46"/>
    </edge>
    <edge id=":AB1_3" function="internal">
        <lane id=":AB1_3_0" index="0" speed="6.51" length="9.03" shape="101.60,92.80,3.50 101.95,95.25,3.49 103.00,97.00,3.48 104.75,98.05,3.47 107.20,98.40,3.46"/>
    </edge>
    <edge id=":AB1_4" function="internal">
        <lane id=":AB1_4_0" index="0" speed="8.00" length="14.19" shape="101.60,92.80,3.50 101.05,96.65,3.49 99.40,99.40,3.48 96.65,101.05,3.47 92.80,101.60,3.46"/>
    </edge>
    <edge id=":AB1_5" function="internal">
        <lane id=":AB1_5_0" index="0" speed="3.65" length="4.67" shape="101.60,92.80,3.50 100.80,94.00,3.50 100.00,94.40,3.50 99.20,94.00,3.50 98.40,92.80,3.50"/>
    </edge>
    <edge id=":AB1_6" function="internal">
        <lane id=":AB1_6_0" index="0" speed="6.51" length="9.03" shape="92.80,98.40,3.46 95.25,98.05,3.47 97.00,97.00,3.48 98.05,95.25,3.49 98.40,92.80,3.50"/>
    </edge>
    <edge id=":AB1_7" function="internal">
        <lane id=":AB1_7_0" index="0" speed="100.00" length="14.40" shape="92.80,98.40,3.46 107.20,98.40,3.46"/>
    </edge>
    <edge id=":AB1_8" function="internal">
        <lane id=":AB1_8_0" index="0" speed="3.65" length="2.34" shape="92.80,98.40,3.46 94.00,99.20,3.46 94.40,100.00,3.46"/>
    </edge>
    <edge id=":AB1_11" function="internal">
        <lane id=":AB1_11_0" index="0" speed="3.65" length="2.34" shape="94.40,100.00,3.46 94.00,100.80,3.46 92.80,101.60,3.46"/>
    </edge>
    <edge id=":AC0_0" function="internal">
        <lane id=":AC0_0_0" index="0" speed="6.51" length="9.03" shape="198.40,7.20,-5.55 198.05,4.75,-5.55 197.00,3.00,-5.55 195.25,1.95,-5.55 192.80,1.60,-5.55"/>
    </edge>
    <edge id=":AC0_1" function="internal">
        <lane id=":AC0_1_0" index="0" speed="8.00" length="14.19" shape="198.40,7.20,-5.55 198.95,3.35,-5.55 200.60,0.60,-5.55 203.35,-1.05,-5.55 207.20,-1.60,-5.55"/>
    </edge>
    <edge id=":AC0_2" function="internal">
        <lane id=":AC0_2_0" index="0" speed="3.65" length="4.67" shape="198.40,7.20,-5.55 199.20,6.00,-5.55 200.00,5.60,-5.55 200.80,6.00,-5.55 201.60,7.20,-5.55"/>
    </edge>
    <edge id=":AC0_3" function="internal">
        <lane id=":AC0_3_0" index="0" speed="6.51" length="9.03" shape="207.20,1.60,-5.55 204.75,1.95,-5.55 203.00,3.00,-5.55 201.95,4.75,-5.55 201.60,7.20,-5.55"/>
    </edge>
    <edge id=":AC0_4" function="internal">
        <lane id=":AC0_4_0" index="0" speed="100.00" length="14.40" shape="207.20,1.60,-5.55 192.80,1.60,-5.55"/>
    </edge>
    <edge id=":AC0_5" function="internal">
        <lane id=":AC0_5_0" index="0" speed="3.65" length="2.34" shape="207.20,1.60,-5.55 206.00,0.80,-5.55 205.60,0.00,-5.55"/>
    </edge>
    <edge id=":AC0_9" function="internal">
        <lane id=":AC0_9_0" index="0" speed="3.65" length="2.34" shape="205.60,0.00,-5.55 206.00,-0.80,-5.55 207.20,-1.60,-5.55"/>
    </edge>
    <edge id=":AC0_6" function="internal">
        <lane id=":AC0_6_0" index="0" speed="100.00" length="14.40" shape="192.80,-1.60,-5.55 207.20,-1.60,-5.55"/>
    </edge>
    <edge id=":AC0_7" function="internal">
        <lane id=":AC0_7_0" index="0" speed="8.00" length="5.93" shape="192.80,-1.60,-5.55 196.65,-1.05,-5.55 198.40,0.00,-5.55"/>
    </edge>
    <edge id=":AC0_8" function="internal">
        <lane id=":AC0_8_0" index="0" speed="3.65" length="2.34" shape="192.80,-1.60,-5.55 194.00,-0.80,-5.55 194.40,0.00,-5.55"/>
    </edge>
    <edge id=":AC0_10" function="internal">
        <lane id=":AC0_10_0" index="0" speed="8.00" length="8.26" shape="198.40,0.00,-5.55 199.40,0.60,-5.55 201.05,3.35,-5.55 201.60,7.20,-5.55"/>
    </edge>
    <edge id=":AC0_11" function="internal">
        <lane id=":AC0_11_0" index="0" speed="3.65" length="2.34" shape="194.40,0.00,-5.55 194.00,0.80,-5.55 192.80,1.60,-5.55"/>
    </edge>
    <edge id=":AC1_0" function="internal">
        <lane id=":AC1_0_0" index="0" speed="100.00" length="14.40" shape="207.20,101.60,-0.76 192.80,101.60,-0.76"/>
    </edge>
    <edge id=":AC1_1" function="internal">
        <lane id=":AC1_1_0" index="0" speed="8.00" length="5.93" shape="207.20,101.60,-0.76 203.35,101.05,-0.76 201.60,100.00,-0.76"/>
    </edge>
    <edge id=":AC1_2" function="internal">
        <lane id=":AC1_2_0" index="0" speed="3.65" length="2.34" shape="207.20,101.60,-0.76 206.00,100.80,-0.76 205.60,100.00,-0.76"/>
    </edge>
    <edge id=":AC1_9" function="internal">
        <lane id=":AC1_9_0" index="0" speed="8.00" length="8.26" shape="201.60,100.00,-0.76 200.60,99.40,-0.76 198.95,96.65,-0.76 198.40,92.80,-0.76"/>
    </edge>
    <edge id=":AC1_10" function="internal">
        <lane id=":AC1_10_0" index="0" speed="3.65" length="2.34" shape="205.60,100.00,-0.76 206.00,99.20,-0.76 207.20,98.40,-0.76"/>
    </edge>
    <edge id=":AC1_3" function="internal">
        <lane id=":AC1_3_0" index="0" speed="6.51" length="9.03" shape="201.60,92.80,-0.76 201.95,95.25,-0.76 203.00,97.00,-0.76 204.75,98.05,-0.76 207.20,98.40,-0.76"/>
    </edge>
    <edge id=":AC1_4" function="internal">
        <lane id=":AC1_4_0" index="0" speed="8.00" length="14.19" shape="201.60,92.80,-0.76 201.05,96.65,-0.76 199.40,99.40,-0.76 196.65,101.05,-0.76 192.80,101.60,-0.76"/>
    </edge>
    <edge id=":AC1_5" function="internal">
        <lane id=":AC1_5_0" index="0" speed="3.65" length="4.67" shape="201.60,92.80,-0.76 200.80,94.00,-0.76 200.00,94.40,-0.76 199.20,94.00,-0.76 198.40,92.80,-0.76"/>
    </edge>
    <edge id=":AC1_6" function="internal">
        <lane id=":AC1_6_0" index="0" speed="6.51" length="9.03" shape="192.80,98.40,-0.76 195.25,98.05,-0.76 197.00,97.00,-0.76 198.05,95.25,-0.76 198.40,92.80,-0.76"/>
    </edge>
    <edge id=":AC1_7" function="internal">
        <lane id=":AC1_7_0" index="0" speed="100.00" length="14.40" shape="192.80,98.40,-0.76 207.20,98.40,-0.76"/>
    </edge>
    <edge id=":AC1_8" function="internal">
        <lane id=":AC1_8_0" index="0" speed="3.65" length="2.34" shape="192.80,98.40,-0.76 194.00,99.20,-0.76 194.40,100.00,-0.76"/>
    </edge>
    <edge id=":AC1_11" function="internal">
        <lane id=":AC1_11_0" index="0" speed="3.65" length="2.34" shape="194.40,100.00,-0.76 194.00,100.80,-0.76 192.80,101.60,-0.76"/>
    </edge>
    <edge id=":AD0_0" function="internal">
        <lane id=":AD0_0_0" index="0" speed="6.51" length="9.03" shape="298.40,7.20,-13.11 298.05,4.75,-13.11 297.00,3.00,-13.11 295.25,1.95,-13.11 292.80,1.60,-13.11"/>
    </edge>
    <edge id=":AD0_1" function="internal">
        <lane id=":AD0_1_0" index="0" speed="8.00" length="14.19" shape="298.40,7.20,-13.11 298.95,3.35,-13.11 300.60,0.60,-13.11 303.35,-1.05,-13.11 307.20,-1.60,-13.11"/>
    </edge>
    <edge id=":AD0_2" function="internal">
        <lane id=":AD0_2_0" index="0" speed="3.65" length="4.67" shape="298.40,7.20,-13.11 299.20,6.00,-13.11 300.00,5.60,-13.11 300.80,6.00,-13.11 301.60,7.20,-13.11"/>
    </edge>
    <edge id=":AD0_3" function="internal">
        <lane id=":AD0_3_0" index="0" speed="6.51" length="9.03" shape="307.20,1.60,-13.11 304.75,1.95,-13.11 303.00,3.00,-13.11 301.95,4.75,-13.11 301.60,7.20,-13.11"/>
    </edge>
    <edge id=":AD0_4" function="internal">
        <lane id=":AD0_4_0" index="0" speed="100.00" length="14.40" shape="307.20,1.60,-13.11 292.80,1.60,-13.11"/>
    </edge>
    <edge id=":AD0_5" function="internal">
        <lane id=":AD0_5_0" index="0" speed="3.65" length="2.34" shape="307.20,1.60,-13.11 306.00,0.80,-13.11 305.60,0.00,-13.11"/>
    </edge>
    <edge id=":AD0_9" function="internal">
        <lane id=":AD0_9_0" index="0" speed="3.65" length="2.34" shape="305.60,0.00,-13.11 306.00,-0.80,-13.11 307.20,-1.60,-13.11"/>
    </edge>
    <edge id=":AD0_6" function="internal">
        <lane id=":AD0_6_0" index="0" speed="100.00" length="14.40" shape="292.80,-1.60,-13.11 307.20,-1.60,-13.11"/>
    </edge>
    <edge id=":AD0_7" function="internal">
        <lane id=":AD0_7_0" index="0" speed="8.00" length="5.93" shape="292.80,-1.60,-13.11 296.65,-1.05,-13.11 298.40,-0.00,-13.11"/>
    </edge>
    <edge id=":AD0_8" function="internal">
        <lane id=":AD0_8_0" index="0" speed="3.65" length="2.34" shape="292.80,-1.60,-13.11 294.00,-0.80,-13.11 294.40,0.00,-13.11"/>
    </edge>
    <edge id=":AD0_10" function="internal">
        <lane id=":AD0_10_0" index="0" speed="8.00" length="8.26" shape="298.40,-0.00,-13.11 299.40,0.60,-13.11 301.05,3.35,-13.11 301.60,7.20,-13.11"/>
    </edge>
    <edge id=":AD0_11" function="internal">
        <lane id=":AD0_11_0" index="0" speed="3.65" length="2.34" shape="294.40,0.00,-13.11 294.00,0.80,-13.11 292.80,1.60,-13.11"/>
    </edge>
    <edge id=":AD1_0" function="internal">
        <lane id=":AD1_0_0" index="0" speed="100.00" length="14.40" shape="307.20,101.60,-8.98 292.80,101.60,-8.98"/>
    </edge>
    <edge id=":AD1_1" function="internal">
        <lane id=":AD1_1_0" index="0" speed="8.00" length="5.93" shape="307.20,101.60,-8.98 303.35,101.05,-8.98 301.60,100.00,-8.98"/>
    </edge>
    <edge id=":AD1_2" function="internal">
        <lane id=":AD1_2_0" index="0" speed="3.65" length="2.34" shape="307.20,101.60,-8.98 306.00,100.80,-8.98 305.60,100.00,-8.98"/>
    </edge>
    <edge id=":AD1_9" function="internal">
        <lane id=":AD1_9_0" index="0" speed="8.00" length="8.26" shape="301.60,100.00,-8.98 300.60,99.40,-8.98 298.95,96.65,-8.98 298.40,92.80,-8.98"/>
    </edge>
    <edge id=":AD1_10" function="internal">
        <lane id=":AD1_10_0" index="0" speed="3.65" length="2.34" shape="305.60,100.00,-8.98 306.00,99.20,-8.98 307.20,98.40,-8.98"/>
    </edge>
    <edge id=":AD1_3" function="internal">
        <lane id=":AD1_3_0" index="0" speed="6.51" length="9.03" shape="301.60,92.80,-8.98 301.95,95.25,-8.98 303.00,97.00,-8.98 304.75,98.05,-8.98 307.20,98.40,-8.98"/>
    </edge>
    <edge id=":AD1_4" function="internal">
        <lane id=":AD1_4_0" index="0" speed="8.00" length="14.19" shape="301.60,92.80,-8.98 301.05,96.65,-8.98 299.40,99.40,-8.98 296.65,101.05,-8.98 292.80,101.60,-8.98"/>
    </edge>
    <edge id=":AD1_5" function="internal">
        <lane id=":AD1_5_0" index="0" speed="3.65" length="4.67" shape="301.60,92.80,-8.98 300.80,94.00,-8.98 300.00,94.40,-8.98 299.20,94.00,-8.98 298.40,92.80,-8.98"/>
    </edge>
    <edge id=":AD1_6" function="internal">
        <lane id=":AD1_6_0" index="0" speed="6.51" length="9.03" shape="292.80,98.40,-8.98 295.25,98.05,-8.98 297.00,97.00,-8.98 298.05,95.25,-8.98 298.40,92.80,-8.98"/>
    </edge>
    <edge id=":AD1_7" function="internal">
        <lane id=":AD1_7_0" index="0" speed="100.00" length="14.40" shape="292.80,98.40,-8.98 307.20,98.40,-8.98"/>
    </edge>
    <edge id=":AD1_8" function="internal">
        <lane id=":AD1_8_0" index="0" speed="3.65" length="2.34" shape="292.80,98.40,-8.98 294.00,99.20,-8.98 294.40,100.00,-8.98"/>
    </edge>
    <edge id=":AD1_11" function="internal">
        <lane id=":AD1_11_0" index="0" speed="3.65" length="2.34" shape="294.40,100.00,-8.98 294.00,100.80,-8.98 292.80,101.60,-8.98"/>
    </edge>
    <edge id=":AE0_0" function="internal">
        <lane id=":AE0_0_0" index="0" speed="6.51" length="9.03" shape="398.40,7.20,-8.16 398.05,4.75,-8.16 397.00,3.00,-8.16 395.25,1.95,-8.16 392.80,1.60,-8.16"/>
    </edge>
    <edge id=":AE0_1" function="internal">
        <lane id=":AE0_1_0" index="0" speed="8.00" length="14.19" shape="398.40,7.20,-8.16 398.95,3.35,-8.19 400.60,0.60,-8.21 403.35,-1.05,-8.23 407.20,-1.60,-8.26"/>
    </edge>
    <edge id=":AE0_2" function="internal">
        <lane id=":AE0_2_0" index="0" speed="3.65" length="4.67" shape="398.40,7.20,-8.16 399.20,6.00,-8.16 400.00,5.60,-8.16 400.80,6.00,-8.16 401.60,7.20,-8.16"/>
    </edge>
    <edge id=":AE0_3" function="internal">
        <lane id=":AE0_3_0" index="0" speed="6.51" length="9.03" shape="407.20,1.60,-8.26 404.75,1.95,-8.23 403.00,3.00,-8.21 401.95,4.75,-8.19 401.60,7.20,-8.16"/>
    </edge>
    <edge id=":AE0_4" function="internal">
        <lane id=":AE0_4_0" index="0" speed="100.00" length="14.40" shape="407.20,1.60,-8.26 392.80,1.60,-8.16"/>
    </edge>
    <edge id=":AE0_5" function="internal">
        <lane id=":AE0_5_0" index="0" speed="3.65" length="2.34" shape="407.20,1.60,-8.26 406.00,0.80,-8.26 405.60,0.00,-8.26"/>
    </edge>
    <edge id=":AE0_9" function="internal">
        <lane id=":AE0_9_0" index="0" speed="3.65" length="2.34" shape="405.60,0.00,-8.26 406.00,-0.80,-8.26 407.20,-1.60,-8.26"/>
    </edge>
    <edge id=":AE0_6" function="internal">
        <lane id=":AE0_6_0" index="0" speed="100.00" length="14.40" shape="392.80,-1.60,-8.16 407.20,-1.60,-8.26"/>
    </edge>
    <edge id=":AE0_7" function="internal">
        <lane id=":AE0_7_0" index="0" speed="8.00" length="5.93" shape="392.80,-1.60,-8.16 396.65,-1.05,-8.16 398.40,-0.00,-8.16"/>
    </edge>
    <edge id=":AE0_8" function="internal">
        <lane id=":AE0_8_0" index="0" speed="3.65" length="2.34" shape="392.80,-1.60,-8.16 394.00,-0.80,-8.16 394.40,0.00,-8.16"/>
    </edge>
    <edge id=":AE0_10" function="internal">
        <lane id=":AE0_10_0" index="0" speed="8.00" length="8.26" shape="398.40,-0.00,-8.16 399.40,0.60,-8.16 401.05,3.35,-8.16 401.60,7.20,-8.16"/>
    </edge>
    <edge id=":AE0_11" function="internal">
        <lane id=":AE0_11_0" index="0" speed="3.65" length="2.34" shape="394.40,0.00,-8.16 394.00,0.80,-8.16 392.80,1.60,-8.16"/>
    </edge>
    <edge id=":AE1_0" function="internal">
        <lane id=":AE1_0_0" index="0" speed="100.00" length="14.40" shape="407.20,101.60,8.90 392.80,101.60,8.90"/>
    </edge>
    <edge id=":AE1_1" function="internal">
        <lane id=":AE1_1_0" index="0" speed="8.00" length="5.93" shape="407.20,101.60,8.90 403.35,101.05,8.90 401.60,100.00,8.90"/>
    </edge>
    <edge id=":AE1_2" function="internal">
        <lane id=":AE1_2_0" index="0" speed="3.65" length="2.34" shape="407.20,101.60,8.90 406.00,100.80,8.90 405.60,100.00,8.90"/>
    </edge>
    <edge id=":AE1_9" function="internal">
        <lane id=":AE1_9_0" index="0" speed="8.00" length="8.26" shape="401.60,100.00,8.90 400.60,99.40,8.90 398.95,96.65,8.90 398.40,92.80,8.90"/>
    </edge>
    <edge id=":AE1_10" function="internal">
        <lane id=":AE1_10_0" index="0" speed="3.65" length="2.34" shape="405.60,100.00,8.90 406.00,99.20,8.90 407.20,98.40,8.90"/>
    </edge>
    <edge id=":AE1_3" function="internal">
        <lane id=":AE1_3_0" index="0" speed="6.51" length="9.03" shape="401.60,92.80,8.90 401.95,95.25,8.90 403.00,97.00,8.90 404.75,98.05,8.90 407.20,98.40,8.90"/>
    </edge>
    <edge id=":AE1_4" function="internal">
        <lane id=":AE1_4_0" index="0" speed="8.00" length="14.19" shape="401.60,92.80,8.90 401.05,96.65,8.90 399.40,99.40,8.90 396.65,101.05,8.90 392.80,101.60,8.90"/>
    </edge>
    <edge id=":AE1_5" function="internal">
        <lane id=":AE1_5_0" index="0" speed="3.65" length="4.67" shape="401.60,92.80,8.90 400.80,94.00,8.90 400.00,94.40,8.90 399.20,94.00,8.90 398.40,92.80,8.90"/>
    </edge>
    <edge id=":AE1_6" function="internal">
        <lane id=":AE1_6_0" index="0" speed="6.51" length="9.03" shape="392.80,98.40,8.90 395.25,98.05,8.90 397.00,97.00,8.90 398.05,95.25,8.90 398.40,92.80,8.90"/>
    </edge>
    <edge id=":AE1_7" function="internal">
        <lane id=":AE1_7_0" index="0" speed="100.00" length="14.40" shape="392.80,98.40,8.90 407.20,98.40,8.90"/>
    </edge>
    <edge id=":AE1_8" function="internal">
        <lane id=":AE1_8_0" index="0" speed="3.65" length="2.34" shape="392.80,98.40,8.90 394.00,99.20,8.90 394.40,100.00,8.90"/>
    </edge>
    <edge id=":AE1_11" function="internal">
        <lane id=":AE1_11_0" index="0" speed="3.65" length="2.34" shape="394.40,100.00,8.90 394.00,100.80,8.90 392.80,101.60,8.90"/>
    </edge>
    <edge id=":AF0_0" function="internal">
        <lane id=":AF0_0_0" index="0" speed="6.51" length="9.03" shape="498.40,7.20,-9.50 498.05,4.75,-9.48 497.00,3.00,-9.45 495.25,1.95,-9.43 492.80,1.60,-9.41"/>
    </edge>
    <edge id=":AF0_1" function="internal">
        <lane id=":AF0_1_0" index="0" speed="8.00" length="14.19" shape="498.40,7.20,-9.50 498.95,3.35,-9.50 500.60,0.60,-9.50 503.35,-1.05,-9.50 507.20,-1.60,-9.50"/>
    </edge>
    <edge id=":AF0_2" function="internal">
        <lane id=":AF0_2_0" index="0" speed="3.65" length="4.67" shape="498.40,7.20,-9.50 499.20,6.00,-9.50 500.00,5.60,-9.50 500.80,6.00,-9.50 501.60,7.20,-9.50"/>
    </edge>
    <edge id=":AF0_3" function="internal">
        <lane id=":AF0_3_0" index="0" speed="6.51" length="9.03" shape="507.20,1.60,-9.50 504.75,1.95,-9.50 503.00,3.00,-9.50 501.95,4.75,-9.50 501.60,7.20,-9.50"/>
    </edge>
    <edge id=":AF0_4" function="internal">
        <lane id=":AF0_4_0" index="0" speed="100.00" length="14.40" shape="507.20,1.60,-9.50 492.80,1.60,-9.41"/>
    </edge>
    <edge id=":AF0_5" function="internal">
        <lane id=":AF0_5_0" index="0" speed="3.65" length="2.34" shape="507.20,1.60,-9.50 506.00,0.80,-9.50 505.60,0.00,-9.50"/>
    </edge>
    <edge id=":AF0_9" function="internal">
        <lane id=":AF0_9_0" index="0" speed="3.65" length="2.34" shape="505.60,0.00,-9.50 506.00,-0.80,-9.50 507.20,-1.60,-9.50"/>
    </edge>
    <edge id=":AF0_6" function="internal">
        <lane id=":AF0_6_0" index="0" speed="100.00" length="14.40" shape="492.80,-1.60,-9.41 507.20,-1.60,-9.50"/>
    </edge>
    <edge id=":AF0_7" function="internal">
        <lane id=":AF0_7_0" index="0" speed="8.00" length="5.93" shape="492.80,-1.60,-9.41 496.65,-1.05,-9.43 498.40,-0.00,-9.45"/>
    </edge>
    <edge id=":AF0_8" function="internal">
        <lane id=":AF0_8_0" index="0" speed="3.65" length="2.34" shape="492.80,-1.60,-9.41 494.00,-0.80,-9.41 494.40,0.00,-9.41"/>
    </edge>
    <edge id=":AF0_10" function="internal">
        <lane id=":AF0_10_0" index="0" speed="8.00" length="8.26" shape="498.40,-0.00,-9.45 499.40,0.60,-9.45 501.05,3.35,-9.48 501.60,7.20,-9.50"/>
    </edge>
    <edge id=":AF0_11" function="internal">
        <lane id=":AF0_11_0" index="0" speed="3.65" length="2.34" shape="494.40,0.00,-9.41 494.00,0.80,-9.41 492.80,1.60,-9.41"/>
    </edge>
    <edge id=":AF1_0" function="internal">
        <lane id=":AF1_0_0" index="0" speed="100.00" length="14.40" shape="507.20,101.60,-6.09 492.80,101.60,-5.99"/>
    </edge>
    <edge id=":AF1_1" function="internal">
        <lane id=":AF1_1_0" index="0" speed="8.00" length="5.93" shape="507.20,101.60,-6.09 503.35,101.05,-6.06 501.60,100.00,-6.05"/>
    </edge>
    <edge id=":AF1_2" function="internal">
        <lane id=":AF1_2_0" index="0" speed="3.65" length="2.34" shape="507.20,101.60,-6.09 506.00,100.80,-6.09 505.60,100.00,-6.09"/>
    </edge>
    <edge id=":AF1_9" function="internal">
        <lane id=":AF1_9_0" index="0" speed="8.00" length="8.26" shape="501.60,100.00,-6.05 500.60,99.40,-6.04 498.95,96.65,-6.02 498.40,92.80,-5.99"/>
    </edge>
    <edge id=":AF1_10" function="internal">
        <lane id=":AF1_10_0" index="0" speed="3.65" length="2.34" shape="505.60,100.00,-6.09 506.00,99.20,-6.09 507.20,98.40,-6.09"/>
    </edge>
    <edge id=":AF1_3" function="internal">
        <lane id=":AF1_3_0" index="0" speed="6.51" length="9.03" shape="501.60,92.80,-5.99 501.95,95.25,-6.02 503.00,97.00,-6.04 504.75,98.05,-6.06 507.20,98.40,-6.09"/>
    </edge>
    <edge id=":AF1_4" function="internal">
        <lane id=":AF1_4_0" index="0" speed="8.00" length="14.19" shape="501.60,92.80,-5.99 501.05,96.65,-5.99 499.40,99.40,-5.99 496.65,101.05,-5.99 492.80,101.60,-5.99"/>
    </edge>
    <edge id=":AF1_5" function="internal">
        <lane id=":AF1_5_0" index="0" speed="3.65" length="4.67" shape="501.60,92.80,-5.99 500.80,94.00,-5.99 500.00,94.40,-5.99 499.20,94.00,-5.99 498.40,92.80,-5.99"/>
    </edge>
    <edge id=":AF1_6" function="internal">
        <lane id=":AF1_6_0" index="0" speed="6.51" length="9.03" shape="492.80,98.40,-5.99 495.25,98.05,-5.99 497.00,97.00,-5.99 498.05,95.25,-5.99 498.40,92.80,-5.99"/>
    </edge>
    <edge id=":AF1_7" function="internal">
        <lane id=":AF1_7_0" index="0" speed="100.00" length="14.40" shape="492.80,98.40,-5.99 507.20,98.40,-6.09"/>
    </edge>
    <edge id=":AF1_8" function="internal">
        <lane id=":AF1_8_0" index="0" speed="3.65" length="2.34" shape="492.80,98.40,-5.99 494.00,99.20,-5.99 494.40,100.00,-5.99"/>
    </edge>
    <edge id=":AF1_11" function="internal">
        <lane id=":AF1_11_0" index="0" speed="3.65" length="2.34" shape="494.40,100.00,-5.99 494.00,100.80,-5.99 492.80,101.60,-5.99"/>
    </edge>
    <edge id=":AG0_0" function="internal">
        <lane id=":AG0_0_0" index="0" speed="6.51" length="9.03" shape="598.40,7.20,-2.47 598.05,4.75,-2.47 597.00,3.00,-2.47 595.25,1.95,-2.47 592.80,1.60,-2.47"/>
    </edge>
    <edge id=":AG0_1" function="internal">
        <lane id=":AG0_1_0" index="0" speed="8.00" length="14.19" shape="598.40,7.20,-2.47 598.95,3.35,-2.47 600.60,0.60,-2.47 603.35,-1.05,-2.47 607.20,-1.60,-2.47"/>
    </edge>
    <edge id=":AG0_2" function="internal">
        <lane id=":AG0_2_0" index="0" speed="3.65" length="4.67" shape="598.40,7.20,-2.47 599.20,6.00,-2.47 600.00,5.60,-2.47 600.80,6.00,-2.47 601.60,7.20,-2.47"/>
    </edge>
    <edge id=":AG0_3" function="internal">
        <lane id=":AG0_3_0" index="0" speed="6.51" length="9.03" shape="607.20,1.60,-2.47 604.75,1.95,-2.47 603.00,3.00,-2.47 601.95,4.75,-2.47 601.60,7.20,-2.47"/>
    </edge>
    <edge id=":AG0_4" function="internal">
        <lane id=":AG0_4_0" index="0" speed="100.00" length="14.40" shape="607.20,1.60,-2.47 592.80,1.60,-2.47"/>
    </edge>
    <edge id=":AG0_5" function="internal">
        <lane id=":AG0_5_0" index="0" speed="3.65" length="2.34" shape="607.20,1.60,-2.47 606.00,0.80,-2.47 605.60,0.00,-2.47"/>
    </edge>
    <edge id=":AG0_9" function="internal">
        <lane id=":AG0_9_0" index="0" speed="3.65" length="2.34" shape="605.60,0.00,-2.47 606.00,-0.80,-2.47 607.20,-1.60,-2.47"/>
    </edge>
    <edge id=":AG0_6" function="internal">
        <lane id=":AG0_6_0" index="0" speed="100.00" length="14.40" shape="592.80,-1.60,-2.47 607.20,-1.60,-2.47"/>
    </edge>
    <edge id=":AG0_7" function="internal">
        <lane id=":AG0_7_0" index="0" speed="8.00" length="5.93" shape="592.80,-1.60,-2.47 596.65,-1.05,-2.47 598.40,0.00,-2.47"/>
    </edge>
    <edge id=":AG0_8" function="internal">
        <lane id=":AG0_8_0" index="0" speed="3.65" length="2.34" shape="592.80,-1.60,-2.47 594.00,-0.80,-2.47 594.40,0.00,-2.47"/>
    </edge>
    <edge id=":AG0_10" function="internal">
        <lane id=":AG0_10_0" index="0" speed="8.00" length="8.26" shape="598.40,0.00,-2.47 599.40,0.60,-2.47 601.05,3.35,-2.47 601.60,7.20,-2.47"/>
    </edge>
    <edge id=":AG0_11" function="internal">
        <lane id=":AG0_11_0" index="0" speed="3.65" length="2.34" shape="594.40,0.00,-2.47 594.00,0.80,-2.47 592.80,1.60,-2.47"/>
    </edge>
    <edge id=":AG1_0" function="internal">
        <lane id=":AG1_0_0" index="0" speed="100.00" length="14.40" shape="607.20,101.60,-7.44 592.80,101.60,-7.34"/>
    </edge>
    <edge id=":AG1_1" function="internal">
        <lane id=":AG1_1_0" index="0" speed="8.00" length="5.93" shape="607.20,101.60,-7.44 603.35,101.05,-7.44 601.60,100.00,-7.44"/>
    </edge>
    <edge id=":AG1_2" function="internal">
        <lane id=":AG1_2_0" index="0" speed="3.65" length="2.34" shape="607.20,101.60,-7.44 606.00,100.80,-7.44 605.60,100.00,-7.44"/>
    </edge>
    <edge id=":AG1_9" function="internal">
        <lane id=":AG1_9_0" index="0" speed="8.00" length="8.26" shape="601.60,100.00,-7.44 600.60,99.40,-7.44 598.95,96.65,-7.44 598.40,92.80,-7.44"/>
    </edge>
    <edge id=":AG1_10" function="internal">
        <lane id=":AG1_10_0" index="0" speed="3.65" length="2.34" shape="605.60,100.00,-7.44 606.00,99.20,-7.44 607.20,98.40,-7.44"/>
    </edge>
    <edge id=":AG1_3" function="internal">
        <lane id=":AG1_3_0" index="0" speed="6.51" length="9.03" shape="601.60,92.80,-7.44 601.95,95.25,-7.44 603.00,97.00,-7.44 604.75,98.05,-7.44 607.20,98.40,-7.44"/>
    </edge>
    <edge id=":AG1_4" function="internal">
        <lane id=":AG1_4_0" index="0" speed="8.00" length="14.19" shape="601.60,92.80,-7.44 601.05,96.65,-7.41 599.40,99.40,-7.39 596.65,101.05,-7.36 592.80,101.60,-7.34"/>
    </edge>
    <edge id=":AG1_5" function="internal">
        <lane id=":AG1_5_0" index="0" speed="3.65" length="4.67" shape="601.60,92.80,-7.44 600.80,94.00,-7.44 600.00,94.40,-7.44 599.20,94.00,-7.44 598.40,92.80,-7.44"/>
    </edge>
    <edge id=":AG1_6" function="internal">
        <lane id=":AG1_6_0" index="0" speed="6.51" length="9.03" shape="592.80,98.40,-7.34 595.25,98.05,-7.36 597.00,97.00,-7.39 598.05,95.25,-7.41 598.40,92.80,-7.44"/>
    </edge>
    <edge id=":AG1_7" function="internal">
        <lane id=":AG1_7_0" index="0" speed="100.00" length="14.40" shape="592.80,98.40,-7.34 607.20,98.40,-7.44"/>
    </edge>