<?xml version="1.0" encoding="UTF-8"?>

<!-- generated on 07/28/20 19:11:40 by Eclipse SUMO netgenerate Version 1.5.0
<configuration xmlns:xsi="http://www.w3.org/2001/XMLSchema-instance" xsi:noNamespaceSchemaLocation="http://sumo.dlr.de/xsd/netgenerateConfiguration.xsd">

    <grid_network>
        <grid value="true"/>
        <grid.x-number value="21"/>
        <grid.y-number value="2"/>
    </grid_network>

    <output>
        <output-file value="3.net.xml"/>
    </output>

    <processing>
        <perturb-z value="25"/>
    </processing>

    <building_defaults>
        <default.speed value="100"/>
    </building_defaults>

    <random_number>
        <seed value="6106279"/>
    </random_number>

</configuration>
-->

<net version="1.3" junctionCornerDetail="5" limitTurnSpeed="5.50" xmlns:xsi="http://www.w3.org/2001/XMLSchema-instance" xsi:noNamespaceSchemaLocation="http://sumo.dlr.de/xsd/net_file.xsd">

    <location netOffset="0.00,0.00" convBoundary="0.00,0.00,2000.00,100.00" origBoundary="0.00,0.00,2000.00,100.00" projParameter="!"/>

    <edge id=":A0_0" function="internal">
        <lane id=":A0_0_0" index="0" speed="6.08" length="7.77" shape="-1.60,3.20,-35.68 -1.30,1.10,-35.86 -0.40,-0.40,-36.01 1.10,-1.30,-36.17 3.20,-1.60,-36.35"/>
    </edge>
    <edge id=":A0_1" function="internal">
        <lane id=":A0_1_0" index="0" speed="3.90" length="2.67" shape="3.20,1.60,-36.35 2.50,1.70,-36.17 2.00,2.00,-36.01 1.70,2.50,-35.86 1.60,3.20,-35.68"/>
    </edge>
    <edge id=":A1_0" function="internal">
        <lane id=":A1_0_0" index="0" speed="6.08" length="7.79" shape="3.20,101.60,-17.08 1.10,101.30,-17.32 -0.40,100.40,-17.53 -1.30,98.90,-17.73 -1.60,96.80,-17.98"/>
    </edge>
    <edge id=":A1_1" function="internal">
        <lane id=":A1_1_0" index="0" speed="3.90" length="2.73" shape="1.60,96.80,-17.98 1.70,97.50,-17.74 2.00,98.00,-17.54 2.50,98.30,-17.34 3.20,98.40,-17.10"/>
    </edge>
    <edge id=":B0_0" function="internal">
        <lane id=":B0_0_0" index="0" speed="6.51" length="9.03" shape="98.40,7.20,-38.49 98.05,4.75,-38.45 97.00,3.00,-38.41 95.25,1.95,-38.38 92.80,1.60,-38.33"/>
    </edge>
    <edge id=":B0_1" function="internal">
        <lane id=":B0_1_0" index="0" speed="8.00" length="14.19" shape="98.40,7.20,-38.49 98.95,3.35,-38.49 100.60,0.60,-38.49 103.35,-1.05,-38.49 107.20,-1.60,-38.49"/>
    </edge>
    <edge id=":B0_2" function="internal">
        <lane id=":B0_2_0" index="0" speed="3.65" length="4.67" shape="98.40,7.20,-38.49 99.20,6.00,-38.49 100.00,5.60,-38.49 100.80,6.00,-38.49 101.60,7.20,-38.49"/>
    </edge>
    <edge id=":B0_3" function="internal">
        <lane id=":B0_3_0" index="0" speed="6.51" length="9.03" shape="107.20,1.60,-38.49 104.75,1.95,-38.49 103.00,3.00,-38.49 101.95,4.75,-38.49 101.60,7.20,-38.49"/>
    </edge>
    <edge id=":B0_4" function="internal">
        <lane id=":B0_4_0" index="0" speed="100.00" length="14.40" shape="107.20,1.60,-38.49 92.80,1.60,-38.33"/>
    </edge>
    <edge id=":B0_5" function="internal">
        <lane id=":B0_5_0" index="0" speed="3.65" length="2.34" shape="107.20,1.60,-38.49 106.00,0.80,-38.49 105.60,0.00,-38.49"/>
    </edge>
    <edge id=":B0_9" function="internal">
        <lane id=":B0_9_0" index="0" speed="3.65" length="2.34" shape="105.60,0.00,-38.49 106.00,-0.80,-38.49 107.20,-1.60,-38.49"/>
    </edge>
    <edge id=":B0_6" function="internal">
        <lane id=":B0_6_0" index="0" speed="100.00" length="14.40" shape="92.80,-1.60,-38.33 107.20,-1.60,-38.49"/>
    </edge>
    <edge id=":B0_7" function="internal">
        <lane id=":B0_7_0" index="0" speed="8.00" length="5.93" shape="92.80,-1.60,-38.33 96.65,-1.05,-38.38 98.40,-0.00,-38.40"/>
    </edge>
    <edge id=":B0_8" function="internal">
        <lane id=":B0_8_0" index="0" speed="3.65" length="2.34" shape="92.80,-1.60,-38.33 94.00,-0.80,-38.33 94.40,0.00,-38.33"/>
    </edge>
    <edge id=":B0_10" function="internal">
        <lane id=":B0_10_0" index="0" speed="8.00" length="8.26" shape="98.40,-0.00,-38.40 99.40,0.60,-38.41 101.05,3.35,-38.45 101.60,7.20,-38.49"/>
    </edge>
    <edge id=":B0_11" function="internal">
        <lane id=":B0_11_0" index="0" speed="3.65" length="2.34" shape="94.40,0.00,-38.33 94.00,0.80,-38.33 92.80,1.60,-38.33"/>
    </edge>
    <edge id=":B1_0" function="internal">
        <lane id=":B1_0_0" index="0" speed="100.00" length="14.40" shape="107.20,101.60,-8.62 92.80,101.60,-8.62"/>
    </edge>
    <edge id=":B1_1" function="internal">
        <lane id=":B1_1_0" index="0" speed="8.00" length="5.93" shape="107.20,101.60,-8.62 103.35,101.05,-8.62 101.60,100.00,-8.62"/>
    </edge>
    <edge id=":B1_2" function="internal">
        <lane id=":B1_2_0" index="0" speed="3.65" length="2.34" shape="107.20,101.60,-8.62 106.00,100.80,-8.62 105.60,100.00,-8.62"/>
    </edge>
    <edge id=":B1_9" function="internal">
        <lane id=":B1_9_0" index="0" speed="8.00" length="8.26" shape="101.60,100.00,-8.62 100.60,99.40,-8.62 98.95,96.65,-8.62 98.40,92.80,-8.62"/>
    </edge>
    <edge id=":B1_10" function="internal">
        <lane id=":B1_10_0" index="0" speed="3.65" length="2.34" shape="105.60,100.00,-8.62 106.00,99.20,-8.62 107.20,98.40,-8.62"/>
    </edge>
    <edge id=":B1_3" function="internal">
        <lane id=":B1_3_0" index="0" speed="6.51" length="9.03" shape="101.60,92.80,-8.62 101.95,95.25,-8.62 103.00,97.00,-8.62 104.75,98.05,-8.62 107.20,98.40,-8.62"/>
    </edge>
    <edge id=":B1_4" function="internal">
        <lane id=":B1_4_0" index="0" speed="8.00" length="14.19" shape="101.60,92.80,-8.62 101.05,96.65,-8.62 99.40,99.40,-8.62 96.65,101.05,-8.62 92.80,101.60,-8.62"/>
    </edge>
    <edge id=":B1_5" function="internal">
        <lane id=":B1_5_0" index="0" speed="3.65" length="4.67" shape="101.60,92.80,-8.62 100.80,94.00,-8.62 100.00,94.40,-8.62 99.20,94.00,-8.62 98.40,92.80,-8.62"/>
    </edge>
    <edge id=":B1_6" function="internal">
        <lane id=":B1_6_0" index="0" speed="6.51" length="9.03" shape="92.80,98.40,-8.62 95.25,98.05,-8.62 97.00,97.00,-8.62 98.05,95.25,-8.62 98.40,92.80,-8.62"/>
    </edge>
    <edge id=":B1_7" function="internal">
        <lane id=":B1_7_0" index="0" speed="100.00" length="14.40" shape="92.80,98.40,-8.62 107.20,98.40,-8.62"/>
    </edge>
    <edge id=":B1_8" function="internal">
        <lane id=":B1_8_0" index="0" speed="3.65" length="2.34" shape="92.80,98.40,-8.62 94.00,99.20,-8.62 94.40,100.00,-8.62"/>
    </edge>
    <edge id=":B1_11" function="internal">
        <lane id=":B1_11_0" index="0" speed="3.65" length="2.34" shape="94.40,100.00,-8.62 94.00,100.80,-8.62 92.80,101.60,-8.62"/>
    </edge>
    <edge id=":C0_0" function="internal">
        <lane id=":C0_0_0" index="0" speed="6.51" length="9.03" shape="198.40,7.20,45.68 198.05,4.75,45.68 197.00,3.00,45.68 195.25,1.95,45.68 192.80,1.60,45.68"/>
    </edge>
    <edge id=":C0_1" function="internal">
        <lane id=":C0_1_0" index="0" speed="8.00" length="14.19" shape="198.40,7.20,45.68 198.95,3.35,45.64 200.60,0.60,45.61 203.35,-1.05,45.59 207.20,-1.60,45.55"/>
    </edge>
    <edge id=":C0_2" function="internal">
        <lane id=":C0_2_0" index="0" speed="3.65" length="4.67" shape="198.40,7.20,45.68 199.20,6.00,45.68 200.00,5.60,45.68 200.80,6.00,45.68 201.60,7.20,45.68"/>
    </edge>
    <edge id=":C0_3" function="internal">
        <lane id=":C0_3_0" index="0" speed="6.51" length="9.03" shape="207.20,1.60,45.55 204.75,1.95,45.59 203.00,3.00,45.61 201.95,4.75,45.64 201.60,7.20,45.68"/>
    </edge>
    <edge id=":C0_4" function="internal">
        <lane id=":C0_4_0" index="0" speed="100.00" length="14.40" shape="207.20,1.60,45.55 192.80,1.60,45.68"/>
    </edge>
    <edge id=":C0_5" function="internal">
        <lane id=":C0_5_0" index="0" speed="3.65" length="2.34" shape="207.20,1.60,45.55 206.00,0.80,45.55 205.60,0.00,45.55"/>
    </edge>
    <edge id=":C0_9" function="internal">
        <lane id=":C0_9_0" index="0" speed="3.65" length="2.34" shape="205.60,0.00,45.55 206.00,-0.80,45.55 207.20,-1.60,45.55"/>
    </edge>
    <edge id=":C0_6" function="internal">
        <lane id=":C0_6_0" index="0" speed="100.00" length="14.40" shape="192.80,-1.60,45.68 207.20,-1.60,45.55"/>
    </edge>
    <edge id=":C0_7" function="internal">
        <lane id=":C0_7_0" index="0" speed="8.00" length="5.93" shape="192.80,-1.60,45.68 196.65,-1.05,45.68 198.40,0.00,45.68"/>
    </edge>
    <edge id=":C0_8" function="internal">
        <lane id=":C0_8_0" index="0" speed="3.65" length="2.34" shape="192.80,-1.60,45.68 194.00,-0.80,45.68 194.40,0.00,45.68"/>
    </edge>
    <edge id=":C0_10" function="internal">
        <lane id=":C0_10_0" index="0" speed="8.00" length="8.26" shape="198.40,0.00,45.68 199.40,0.60,45.68 201.05,3.35,45.68 201.60,7.20,45.68"/>
    </edge>
    <edge id=":C0_11" function="internal">
        <lane id=":C0_11_0" index="0" speed="3.65" length="2.34" shape="194.40,0.00,45.68 194.00,0.80,45.68 192.80,1.60,45.68"/>
    </edge>
    <edge id=":C1_0" function="internal">
        <lane id=":C1_0_0" index="0" speed="100.00" length="14.40" shape="207.20,101.60,5.53 192.80,101.60,5.53"/>
    </edge>
    <edge id=":C1_1" function="internal">
        <lane id=":C1_1_0" index="0" speed="8.00" length="5.93" shape="207.20,101.60,5.53 203.35,101.05,5.53 201.60,100.00,5.53"/>
    </edge>
    <edge id=":C1_2" function="internal">
        <lane id=":C1_2_0" index="0" speed="3.65" length="2.34" shape="207.20,101.60,5.53 206.00,100.80,5.53 205.60,100.00,5.53"/>
    </edge>
    <edge id=":C1_9" function="internal">
        <lane id=":C1_9_0" index="0" speed="8.00" length="8.26" shape="201.60,100.00,5.53 200.60,99.40,5.53 198.95,96.65,5.53 198.40,92.80,5.53"/>
    </edge>
    <edge id=":C1_10" function="internal">
        <lane id=":C1_10_0" index="0" speed="3.65" length="2.34" shape="205.60,100.00,5.53 206.00,99.20,5.53 207.20,98.40,5.53"/>
    </edge>
    <edge id=":C1_3" function="internal">
        <lane id=":C1_3_0" index="0" speed="6.51" length="9.03" shape="201.60,92.80,5.53 201.95,95.25,5.53 203.00,97.00,5.53 204.75,98.05,5.53 207.20,98.40,5.53"/>
    </edge>
    <edge id=":C1_4" function="internal">
        <lane id=":C1_4_0" index="0" speed="8.00" length="14.19" shape="201.60,92.80,5.53 201.05,96.65,5.53 199.40,99.40,5.53 196.65,101.05,5.53 192.80,101.60,5.53"/>
    </edge>
    <edge id=":C1_5" function="internal">
        <lane id=":C1_5_0" index="0" speed="3.65" length="4.67" shape="201.60,92.80,5.53 200.80,94.00,5.53 200.00,94.40,5.53 199.20,94.00,5.53 198.40,92.80,5.53"/>
    </edge>
    <edge id=":C1_6" function="internal">
        <lane id=":C1_6_0" index="0" speed="6.51" length="9.03" shape="192.80,98.40,5.53 195.25,98.05,5.53 197.00,97.00,5.53 198.05,95.25,5.53 198.40,92.80,5.53"/>
    </edge>
    <edge id=":C1_7" function="internal">
        <lane id=":C1_7_0" index="0" speed="100.00" length="14.40" shape="192.80,98.40,5.53 207.20,98.40,5.53"/>
    </edge>
    <edge id=":C1_8" function="internal">
        <lane id=":C1_8_0" index="0" speed="3.65" length="2.34" shape="192.80,98.40,5.53 194.00,99.20,5.53 194.40,100.00,5.53"/>
    </edge>
    <edge id=":C1_11" function="internal">
        <lane id=":C1_11_0" index="0" speed="3.65" length="2.34" shape="194.40,100.00,5.53 194.00,100.80,5.53 192.80,101.60,5.53"/>
    </edge>
    <edge id=":D0_0" function="internal">
        <lane id=":D0_0_0" index="0" speed="6.51" length="9.03" shape="298.40,7.20,43.87 298.05,4.75,43.90 297.00,3.00,43.93 295.25,1.95,43.96 292.80,1.60,44.00"/>
    </edge>
    <edge id=":D0_1" function="internal">
        <lane id=":D0_1_0" index="0" speed="8.00" length="14.19" shape="298.40,7.20,43.87 298.95,3.35,43.87 300.60,0.60,43.87 303.35,-1.05,43.87 307.20,-1.60,43.87"/>
    </edge>
    <edge id=":D0_2" function="internal">
        <lane id=":D0_2_0" index="0" speed="3.65" length="4.67" shape="298.40,7.20,43.87 299.20,6.00,43.87 300.00,5.60,43.87 300.80,6.00,43.87 301.60,7.20,43.87"/>
    </edge>
    <edge id=":D0_3" function="internal">
        <lane id=":D0_3_0" index="0" speed="6.51" length="9.03" shape="307.20,1.60,43.87 304.75,1.95,43.87 303.00,3.00,43.87 301.95,4.75,43.87 301.60,7.20,43.87"/>
    </edge>
    <edge id=":D0_4" function="internal">
        <lane id=":D0_4_0" index="0" speed="100.00" length="14.40" shape="307.20,1.60,43.87 292.80,1.60,44.00"/>
    </edge>
    <edge id=":D0_5" function="internal">
        <lane id=":D0_5_0" index="0" speed="3.65" length="2.34" shape="307.20,1.60,43.87 306.00,0.80,43.87 305.60,0.00,43.87"/>
    </edge>
    <edge id=":D0_9" function="internal">
        <lane id=":D0_9_0" index="0" speed="3.65" length="2.34" shape="305.60,0.00,43.87 306.00,-0.80,43.87 307.20,-1.60,43.87"/>
    </edge>
    <edge id=":D0_6" function="internal">
        <lane id=":D0_6_0" index="0" speed="100.00" length="14.40" shape="292.80,-1.60,44.00 307.20,-1.60,43.87"/>
    </edge>
    <edge id=":D0_7" function="internal">
        <lane id=":D0_7_0" index="0" speed="8.00" length="5.93" shape="292.80,-1.60,44.00 296.65,-1.05,43.96 298.40,-0.00,43.94"/>
    </edge>
    <edge id=":D0_8" function="internal">
        <lane id=":D0_8_0" index="0" speed="3.65" length="2.34" shape="292.80,-1.60,44.00 294.00,-0.80,44.00 294.40,0.00,44.00"/>
    </edge>
    <edge id=":D0_10" function="internal">
        <lane id=":D0_10_0" index="0" speed="8.00" length="8.26" shape="298.40,-0.00,43.94 299.40,0.60,43.93 301.05,3.35,43.90 301.60,7.20,43.87"/>
    </edge>
    <edge id=":D0_11" function="internal">
        <lane id=":D0_11_0" index="0" speed="3.65" length="2.34" shape="294.40,0.00,44.00 294.00,0.80,44.00 292.80,1.60,44.00"/>
    </edge>
    <edge id=":D1_0" function="internal">
        <lane id=":D1_0_0" index="0" speed="100.00" length="14.40" shape="307.20,101.60,-10.34 292.80,101.60,-10.34"/>
    </edge>
    <edge id=":D1_1" function="internal">
        <lane id=":D1_1_0" index="0" speed="8.00" length="5.93" shape="307.20,101.60,-10.34 303.35,101.05,-10.34 301.60,100.00,-10.34"/>
    </edge>
    <edge id=":D1_2" function="internal">
        <lane id=":D1_2_0" index="0" speed="3.65" length="2.34" shape="307.20,101.60,-10.34 306.00,100.80,-10.34 305.60,100.00,-10.34"/>
    </edge>
    <edge id=":D1_9" function="internal">
        <lane id=":D1_9_0" index="0" speed="8.00" length="8.26" shape="301.60,100.00,-10.34 300.60,99.40,-10.34 298.95,96.65,-10.34 298.40,92.80,-10.34"/>
    </edge>
    <edge id=":D1_10" function="internal">
        <lane id=":D1_10_0" index="0" speed="3.65" length="2.34" shape="305.60,100.00,-10.34 306.00,99.20,-10.34 307.20,98.40,-10.34"/>
    </edge>
    <edge id=":D1_3" function="internal">
        <lane id=":D1_3_0" index="0" speed="6.51" length="9.03" shape="301.60,92.80,-10.34 301.95,95.25,-10.34 303.00,97.00,-10.34 304.75,98.05,-10.34 307.20,98.40,-10.34"/>
    </edge>
    <edge id=":D1_4" function="internal">
        <lane id=":D1_4_0" index="0" speed="8.00" length="14.19" shape="301.60,92.80,-10.34 301.05,96.65,-10.34 299.40,99.40,-10.34 296.65,101.05,-10.34 292.80,101.60,-10.34"/>
    </edge>
    <edge id=":D1_5" function="internal">
        <lane id=":D1_5_0" index="0" speed="3.65" length="4.67" shape="301.60,92.80,-10.34 300.80,94.00,-10.34 300.00,94.40,-10.34 299.20,94.00,-10.34 298.40,92.80,-10.34"/>
    </edge>
    <edge id=":D1_6" function="internal">
        <lane id=":D1_6_0" index="0" speed="6.51" length="9.03" shape="292.80,98.40,-10.34 295.25,98.05,-10.34 297.00,97.00,-10.34 298.05,95.25,-10.34 298.40,92.80,-10.34"/>
    </edge>
    <edge id=":D1_7" function="internal">
        <lane id=":D1_7_0" index="0" speed="100.00" length="14.40" shape="292.80,98.40,-10.34 307.20,98.40,-10.34"/>
    </edge>
    <edge id=":D1_8" function="internal">
        <lane id=":D1_8_0" index="0" speed="3.65" length="2.34" shape="292.80,98.40,-10.34 294.00,99.20,-10.34 294.40,100.00,-10.34"/>
    </edge>
    <edge id=":D1_11" function="internal">
        <lane id=":D1_11_0" index="0" speed="3.65" length="2.34" shape="294.40,100.00,-10.34 294.00,100.80,-10.34 292.80,101.60,-10.34"/>
    </edge>
    <edge id=":E0_0" function="internal">
        <lane id=":E0_0_0" index="0" speed="6.51" length="9.03" shape="398.40,7.20,43.94 398.05,4.75,43.94 397.00,3.00,43.94 395.25,1.95,43.94 392.80,1.60,43.94"/>
    </edge>
    <edge id=":E0_1" function="internal">
        <lane id=":E0_1_0" index="0" speed="8.00" length="14.19" shape="398.40,7.20,43.94 398.95,3.35,43.94 400.60,0.60,43.94 403.35,-1.05,43.94 407.20,-1.60,43.94"/>
    </edge>
    <edge id=":E0_2" function="internal">
        <lane id=":E0_2_0" index="0" speed="3.65" length="4.67" shape="398.40,7.20,43.94 399.20,6.00,43.94 400.00,5.60,43.94 400.80,6.00,43.94 401.60,7.20,43.94"/>
    </edge>
    <edge id=":E0_3" function="internal">
        <lane id=":E0_3_0" index="0" speed="6.51" length="9.03" shape="407.20,1.60,43.94 404.75,1.95,43.94 403.00,3.00,43.94 401.95,4.75,43.94 401.60,7.20,43.94"/>
    </edge>
    <edge id=":E0_4" function="internal">
        <lane id=":E0_4_0" index="0" speed="100.00" length="14.40" shape="407.20,1.60,43.94 392.80,1.60,43.94"/>
    </edge>
    <edge id=":E0_5" function="internal">
        <lane id=":E0_5_0" index="0" speed="3.65" length="2.34" shape="407.20,1.60,43.94 406.00,0.80,43.94 405.60,0.00,43.94"/>
    </edge>
    <edge id=":E0_9" function="internal">
        <lane id=":E0_9_0" index="0" speed="3.65" length="2.34" shape="405.60,0.00,43.94 406.00,-0.80,43.94 407.20,-1.60,43.94"/>
    </edge>
    <edge id=":E0_6" function="internal">
        <lane id=":E0_6_0" index="0" speed="100.00" length="14.40" shape="392.80,-1.60,43.94 407.20,-1.60,43.94"/>
    </edge>
    <edge id=":E0_7" function="internal">
        <lane id=":E0_7_0" index="0" speed="8.00" length="5.93" shape="392.80,-1.60,43.94 396.65,-1.05,43.94 398.40,-0.00,43.94"/>
    </edge>
    <edge id=":E0_8" function="internal">
        <lane id=":E0_8_0" index="0" speed="3.65" length="2.34" shape="392.80,-1.60,43.94 394.00,-0.80,43.94 394.40,0.00,43.94"/>
    </edge>
    <edge id=":E0_10" function="internal">
        <lane id=":E0_10_0" index="0" speed="8.00" length="8.26" shape="398.40,-0.00,43.94 399.40,0.60,43.94 401.05,3.35,43.94 401.60,7.20,43.94"/>
    </edge>
    <edge id=":E0_11" function="internal">
        <lane id=":E0_11_0" index="0" speed="3.65" length="2.34" shape="394.40,0.00,43.94 394.00,0.80,43.94 392.80,1.60,43.94"/>
    </edge>
    <edge id=":E1_0" function="internal">
        <lane id=":E1_0_0" index="0" speed="100.00" length="14.40" shape="407.20,101.60,26.09 392.80,101.60,26.09"/>
    </edge>
    <edge id=":E1_1" function="internal">
        <lane id=":E1_1_0" index="0" speed="8.00" length="5.93" shape="407.20,101.60,26.09 403.35,101.05,26.09 401.60,100.00,26.09"/>
    </edge>
    <edge id=":E1_2" function="internal">
        <lane id=":E1_2_0" index="0" speed="3.65" length="2.34" shape="407.20,101.60,26.09 406.00,100.80,26.09 405.60,100.00,26.09"/>
    </edge>
    <edge id=":E1_9" function="internal">
        <lane id=":E1_9_0" index="0" speed="8.00" length="8.26" shape="401.60,100.00,26.09 400.60,99.40,26.09 398.95,96.65,26.09 398.40,92.80,26.09"/>
    </edge>
    <edge id=":E1_10" function="internal">
        <lane id=":E1_10_0" index="0" speed="3.65" length="2.34" shape="405.60,100.00,26.09 406.00,99.20,26.09 407.20,98.40,26.09"/>
    </edge>
    <edge id=":E1_3" function="internal">
        <lane id=":E1_3_0" index="0" speed="6.51" length="9.03" shape="401.60,92.80,26.09 401.95,95.25,26.09 403.00,97.00,26.09 404.75,98.05,26.09 407.20,98.40,26.09"/>
    </edge>
    <edge id=":E1_4" function="internal">
        <lane id=":E1_4_0" index="0" speed="8.00" length="14.19" shape="401.60,92.80,26.09 401.05,96.65,26.09 399.40,99.40,26.09 396.65,101.05,26.09 392.80,101.60,26.09"/>
    </edge>
    <edge id=":E1_5" function="internal">
        <lane id=":E1_5_0" index="0" speed="3.65" length="4.67" shape="401.60,92.80,26.09 400.80,94.00,26.09 400.00,94.40,26.09 399.20,94.00,26.09 398.40,92.80,26.09"/>
    </edge>
    <edge id=":E1_6" function="internal">
        <lane id=":E1_6_0" index="0" speed="6.51" length="9.03" shape="392.80,98.40,26.09 395.25,98.05,26.09 397.00,97.00,26.09 398.05,95.25,26.09 398.40,92.80,26.09"/>
    </edge>
    <edge id=":E1_7" function="internal">
        <lane id=":E1_7_0" index="0" speed="100.00" length="14.40" shape="392.80,98.40,26.09 407.20,98.40,26.09"/>
    </edge>
    <edge id=":E1_8" function="internal">
        <lane id=":E1_8_0" index="0" speed="3.65" length="2.34" shape="392.80,98.40,26.09 394.00,99.20,26.09 394.40,100.00,26.09"/>
    </edge>
    <edge id=":E1_11" function="internal">
        <lane id=":E1_11_0" index="0" speed="3.65" length="2.34" shape="394.40,100.00,26.09 394.00,100.80,26.09 392.80,101.60,26.09"/>
    </edge>
    <edge id=":F0_0" function="internal">
        <lane id=":F0_0_0" index="0" speed="6.51" length="9.03" shape="498.40,7.20,-35.95 498.05,4.75,-35.95 497.00,3.00,-35.95 495.25,1.95,-35.95 492.80,1.60,-35.95"/>
    </edge>
    <edge id=":F0_1" function="internal">
        <lane id=":F0_1_0" index="0" speed="8.00" length="14.19" shape="498.40,7.20,-35.95 498.95,3.35,-35.95 500.60,0.60,-35.95 503.35,-1.05,-35.95 507.20,-1.60,-35.95"/>
    </edge>
    <edge id=":F0_2" function="internal">
        <lane id=":F0_2_0" index="0" speed="3.65" length="4.67" shape="498.40,7.20,-35.95 499.20,6.00,-35.95 500.00,5.60,-35.95 500.80,6.00,-35.95 501.60,7.20,-35.95"/>
    </edge>
    <edge id=":F0_3" function="internal">
        <lane id=":F0_3_0" index="0" speed="6.51" length="9.03" shape="507.20,1.60,-35.95 504.75,1.95,-35.95 503.00,3.00,-35.95 501.95,4.75,-35.95 501.60,7.20,-35.95"/>
    </edge>
    <edge id=":F0_4" function="internal">
        <lane id=":F0_4_0" index="0" speed="100.00" length="14.40" shape="507.20,1.60,-35.95 492.80,1.60,-35.95"/>
    </edge>
    <edge id=":F0_5" function="internal">
        <lane id=":F0_5_0" index="0" speed="3.65" length="2.34" shape="507.20,1.60,-35.95 506.00,0.80,-35.95 505.60,0.00,-35.95"/>
    </edge>
    <edge id=":F0_9" function="internal">
        <lane id=":F0_9_0" index="0" speed="3.65" length="2.34" shape="505.60,0.00,-35.95 506.00,-0.80,-35.95 507.20,-1.60,-35.95"/>
    </edge>
    <edge id=":F0_6" function="internal">
        <lane id=":F0_6_0" index="0" speed="100.00" length="14.40" shape="492.80,-1.60,-35.95 507.20,-1.60,-35.95"/>
    </edge>
    <edge id=":F0_7" function="internal">
        <lane id=":F0_7_0" index="0" speed="8.00" length="5.93" shape="492.80,-1.60,-35.95 496.65,-1.05,-35.95 498.40,-0.00,-35.95"/>
    </edge>
    <edge id=":F0_8" function="internal">
        <lane id=":F0_8_0" index="0" speed="3.65" length="2.34" shape="492.80,-1.60,-35.95 494.00,-0.80,-35.95 494.40,0.00,-35.95"/>
    </edge>
    <edge id=":F0_10" function="internal">
        <lane id=":F0_10_0" index="0" speed="8.00" length="8.26" shape="498.40,-0.00,-35.95 499.40,0.60,-35.95 501.05,3.35,-35.95 501.60,7.20,-35.95"/>
    </edge>
    <edge id=":F0_11" function="internal">
        <lane id=":F0_11_0" index="0" speed="3.65" length="2.34" shape="494.40,0.00,-35.95 494.00,0.80,-35.95 492.80,1.60,-35.95"/>
    </edge>
    <edge id=":F1_0" function="internal">
        <lane id=":F1_0_0" index="0" speed="100.00" length="14.40" shape="507.20,101.60,1.70 492.80,101.60,1.53"/>
    </edge>
    <edge id=":F1_1" function="internal">
        <lane id=":F1_1_0" index="0" speed="8.00" length="5.93" shape="507.20,101.60,1.70 503.35,101.05,1.65 501.60,100.00,1.63"/>
    </edge>
    <edge id=":F1_2" function="internal">
        <lane id=":F1_2_0" index="0" speed="3.65" length="2.34" shape="507.20,101.60,1.70 506.00,100.80,1.70 505.60,100.00,1.70"/>
    </edge>
    <edge id=":F1_9" function="internal">
        <lane id=":F1_9_0" index="0" speed="8.00" length="8.26" shape="501.60,100.00,1.63 500.60,99.40,1.62 498.95,96.65,1.58 498.40,92.80,1.53"/>
    </edge>
    <edge id=":F1_10" function="internal">
        <lane id=":F1_10_0" index="0" speed="3.65" length="2.34" shape="505.60,100.00,1.70 506.00,99.20,1.70 507.20,98.40,1.70"/>
    </edge>
    <edge id=":F1_3" function="internal">
        <lane id=":F1_3_0" index="0" speed="6.51" length="9.03" shape="501.60,92.80,1.53 501.95,95.25,1.58 503.00,97.00,1.62 504.75,98.05,1.65 507.20,98.40,1.70"/>
    </edge>
    <edge id=":F1_4" function="internal">
        <lane id=":F1_4_0" index="0" speed="8.00" length="14.19" shape="501.60,92.80,1.53 501.05,96.65,1.53 499.40,99.40,1.53 496.65,101.05,1.53 492.80,101.60,1.53"/>
    </edge>
    <edge id=":F1_5" function="internal">
        <lane id=":F1_5_0" index="0" speed="3.65" length="4.67" shape="501.60,92.80,1.53 500.80,94.00,1.53 500.00,94.40,1.53 499.20,94.00,1.53 498.40,92.80,1.53"/>
    </edge>
    <edge id=":F1_6" function="internal">
        <lane id=":F1_6_0" index="0" speed="6.51" length="9.03" shape="492.80,98.40,1.53 495.25,98.05,1.53 497.00,97.00,1.53 498.05,95.25,1.53 498.40,92.80,1.53"/>
    </edge>
    <edge id=":F1_7" function="internal">
        <lane id=":F1_7_0" index="0" speed="100.00" length="14.40" shape="492.80,98.40,1.53 507.20,98.40,1.70"/>
    </edge>
    <edge id=":F1_8" function="internal">
        <lane id=":F1_8_0" index="0" speed="3.65" length="2.34" shape="492.80,98.40,1.53 494.00,99.20,1.53 494.40,100.00,1.53"/>
    </edge>
    <edge id=":F1_11" function="internal">
        <lane id=":F1_11_0" index="0" speed="3.65" length="2.34" shape="494.40,100.00,1.53 494.00,100.80,1.53 492.80,101.60,1.53"/>
    </edge>
    <edge id=":G0_0" function="internal">
        <lane id=":G0_0_0" index="0" speed="6.51" length="9.03" shape="598.40,7.20,13.72 598.05,4.75,13.72 597.00,3.00,13.72 595.25,1.95,13.72 592.80,1.60,13.72"/>
    </edge>
    <edge id=":G0_1" function="internal">
        <lane id=":G0_1_0" index="0" speed="8.00" length="14.19" shape="598.40,7.20,13.72 598.95,3.35,13.72 600.60,0.60,13.72 603.35,-1.05,13.72 607.20,-1.60,13.72"/>
    </edge>
    <edge id=":G0_2" function="internal">
        <lane id=":G0_2_0" index="0" speed="3.65" length="4.67" shape="598.40,7.20,13.72 599.20,6.00,13.72 600.00,5.60,13.72 600.80,6.00,13.72 601.60,7.20,13.72"/>
    </edge>
    <edge id=":G0_3" function="internal">
        <lane id=":G0_3_0" index="0" speed="6.51" length="9.03" shape="607.20,1.60,13.72 604.75,1.95,13.72 603.00,3.00,13.72 601.95,4.75,13.72 601.60,7.20,13.72"/>
    </edge>
    <edge id=":G0_4" function="internal">
        <lane id=":G0_4_0" index="0" speed="100.00" length="14.40" shape="607.20,1.60,13.72 592.80,1.60,13.72"/>
    </edge>
    <edge id=":G0_5" function="internal">
        <lane id=":G0_5_0" index="0" speed="3.65" length="2.34" shape="607.20,1.60,13.72 606.00,0.80,13.72 605.60,0.00,13.72"/>
    </edge>
    <edge id=":G0_9" function="internal">
        <lane id=":G0_9_0" index="0" speed="3.65" length="2.34" shape="605.60,0.00,13.72 606.00,-0.80,13.72 607.20,-1.60,13.72"/>
    </edge>
    <edge id=":G0_6" function="internal">
        <lane id=":G0_6_0" index="0" speed="100.00" length="14.40" shape="592.80,-1.60,13.72 607.20,-1.60,13.72"/>
    </edge>
    <edge id=":G0_7" function="internal">
        <lane id=":G0_7_0" index="0" speed="8.00" length="5.93" shape="592.80,-1.60,13.72 596.65,-1.05,13.72 598.40,0.00,13.72"/>
    </edge>
    <edge id=":G0_8" function="internal">
        <lane id=":G0_8_0" index="0" speed="3.65" length="2.34" shape="592.80,-1.60,13.72 594.00,-0.80,13.72 594.40,0.00,13.72"/>
    </edge>
    <edge id=":G0_10" function="internal">
        <lane id=":G0_10_0" index="0" speed="8.00" length="8.26" shape="598.40,0.00,13.72 599.40,0.60,13.72 601.05,3.35,13.72 601.60,7.20,13.72"/>
    </edge>
    <edge id=":G0_11" function="internal">
        <lane id=":G0_11_0" index="0" speed="3.65" length="2.34" shape="594.40,0.00,13.72 594.00,0.80,13.72 592.80,1.60,13.72"/>
    </edge>
    <edge id=":G1_0" function="internal">
        <lane id=":G1_0_0" index="0" speed="100.00" length="14.40" shape="607.20,101.60,3.81 592.80,101.60,3.65"/>
    </edge>
    <edge id=":G1_1" function="internal">
        <lane id=":G1_1_0" index="0" speed="8.00" length="5.93" shape="607.20,101.60,3.81 603.35,101.05,3.81 601.60,100.00,3.81"/>
    </edge>
    <edge id=":G1_2" function="internal">
        <lane id=":G1_2_0" index="0" speed="3.65" length="2.34" shape="607.20,101.60,3.81 606.00,100.80,3.81 605.60,100.00,3.81"/>
    </edge>
    <edge id=":G1_9" function="internal">
        <lane id=":G1_9_0" index="0" speed="8.00" length="8.26" shape="601.60,100.00,3.81 600.60,99.40,3.81 598.95,96.65,3.81 598.40,92.80,3.81"/>
    </edge>
    <edge id=":G1_10" function="internal">
        <lane id=":G1_10_0" index="0" speed="3.65" length="2.34" shape="605.60,100.00,3.81 606.00,99.20,3.81 607.20,98.40,3.81"/>
    </edge>
    <edge id=":G1_3" function="internal">
        <lane id=":G1_3_0" index="0" speed="6.51" length="9.03" shape="601.60,92.80,3.81 601.95,95.25,3.81 603.00,97.00,3.81 604.75,98.05,3.81 607.20,98.40,3.81"/>
    </edge>
    <edge id=":G1_4" function="internal">
        <lane id=":G1_4_0" index="0" speed="8.00" length="14.19" shape="601.60,92.80,3.81 601.05,96.65,3.77 599.40,99.40,3.73 596.65,101.05,3.69 592.80,101.60,3.65"/>
    </edge>
    <edge id=":G1_5" function="internal">
        <lane id=":G1_5_0" index="0" speed="3.65" length="4.67" shape="601.60,92.80,3.81 600.80,94.00,3.81 600.00,94.40,3.81 599.20,94.00,3.81 598.40,92.80,3.81"/>
    </edge>
    <edge id=":G1_6" function="internal">
        <lane id=":G1_6_0" index="0" speed="6.51" length="9.03" shape="592.80,98.40,3.65 595.25,98.05,3.69 597.00,97.00,3.73 598.05,95.25,3.77 598.40,92.80,3.81"/>
    </edge>
    <edge id=":G1_7" function="internal">
        <lane id=":G1_7_0" index="0" speed="100.00" length="14.40" shape="592.80,98.40,3.65 607.20,98.40,3.81"/>
    </edge>
    <edge id=":G1_8" function="internal">
        <lane id=":G1_8_0" index="0" speed="3.65" length="2.34" shape="592.80,98.40,3.65 594.00,99.20,3.65 594.40,100.00,3.65"/>
    </edge>