<?xml version="1.0" encoding="UTF-8"?>

<!-- generated on 07/22/20 22:23:39 by Eclipse SUMO netgenerate Version 1.5.0
<configuration xmlns:xsi="http://www.w3.org/2001/XMLSchema-instance" xsi:noNamespaceSchemaLocation="http://sumo.dlr.de/xsd/netgenerateConfiguration.xsd">

    <grid_network>
        <grid value="true"/>
        <grid.x-number value="20"/>
        <grid.y-number value="2"/>
    </grid_network>

    <output>
        <output-file value="3.net.xml"/>
    </output>

    <processing>
        <perturb-x value="23"/>
        <perturb-z value="100"/>
    </processing>

    <random_number>
        <seed value="6106279"/>
    </random_number>

</configuration>
-->

<net version="1.3" junctionCornerDetail="5" limitTurnSpeed="5.50" xmlns:xsi="http://www.w3.org/2001/XMLSchema-instance" xsi:noNamespaceSchemaLocation="http://sumo.dlr.de/xsd/net_file.xsd">

    <location netOffset="15.99,0.00" convBoundary="0.00,0.00,1936.14,100.00" origBoundary="-15.99,0.00,1920.16,100.00" projParameter="!"/>

    <edge id=":A0_0" function="internal">
        <lane id=":A0_0_0" index="0" speed="6.07" length="12.70" shape="-1.32,3.59,-145.43 -1.17,1.32,-142.74 -0.33,-0.30,-140.58 1.22,-1.28,-138.42 3.47,-1.60,-135.73"/>
    </edge>
    <edge id=":A0_1" function="internal">
        <lane id=":A0_1_0" index="0" speed="3.90" length="10.69" shape="3.47,1.60,-135.10 2.72,1.71,-137.96 2.20,2.03,-140.26 1.92,2.57,-142.57 1.87,3.33,-145.43"/>
    </edge>
    <edge id=":A1_0" function="internal">
        <lane id=":A1_0_0" index="0" speed="6.09" length="12.41" shape="11.01,101.60,-143.67 9.05,101.32,-146.39 7.60,100.50,-148.69 6.66,99.12,-150.99 6.23,97.19,-153.71"/>
    </edge>
    <edge id=":A1_1" function="internal">
        <lane id=":A1_1_0" index="0" speed="3.91" length="9.93" shape="9.42,96.93,-153.71 9.56,97.57,-151.10 9.88,98.03,-148.90 10.36,98.31,-146.70 11.01,98.40,-144.09"/>
    </edge>
    <edge id=":B0_0" function="internal">
        <lane id=":B0_0_0" index="0" speed="7.12" length="9.81" shape="127.84,1.60,182.72 125.43,1.99,182.72 123.58,3.16,182.72 122.28,5.12,182.72 121.55,7.85,182.72"/>
    </edge>
    <edge id=":B0_1" function="internal">
        <lane id=":B0_1_0" index="0" speed="13.89" length="14.47" shape="127.84,1.60,182.72 113.37,1.60,182.72"/>
    </edge>
    <edge id=":B0_2" function="internal">
        <lane id=":B0_2_0" index="0" speed="3.65" length="2.34" shape="127.84,1.60,182.72 126.64,0.80,182.72 126.24,0.00,182.72"/>
    </edge>
    <edge id=":B0_9" function="internal">
        <lane id=":B0_9_0" index="0" speed="3.65" length="2.34" shape="126.24,0.00,182.72 126.64,-0.80,182.72 127.84,-1.60,182.72"/>
    </edge>
    <edge id=":B0_3" function="internal">
        <lane id=":B0_3_0" index="0" speed="13.89" length="14.47" shape="113.37,-1.60,182.72 127.84,-1.60,182.72"/>
    </edge>
    <edge id=":B0_4" function="internal">
        <lane id=":B0_4_0" index="0" speed="7.76" length="5.99" shape="113.37,-1.60,182.72 117.47,-1.01,182.72 119.02,-0.00,182.72"/>
    </edge>
    <edge id=":B0_5" function="internal">
        <lane id=":B0_5_0" index="0" speed="3.65" length="2.34" shape="113.37,-1.60,182.72 114.57,-0.80,182.72 114.97,0.00,182.72"/>
    </edge>
    <edge id=":B0_10" function="internal">
        <lane id=":B0_10_0" index="0" speed="7.76" length="8.79" shape="119.02,-0.00,182.72 120.19,0.76,182.72 121.55,3.72,182.72 121.55,7.85,182.72"/>
    </edge>
    <edge id=":B0_11" function="internal">
        <lane id=":B0_11_0" index="0" speed="3.65" length="2.34" shape="114.97,0.00,182.72 114.57,0.80,182.72 113.37,1.60,182.72"/>
    </edge>
    <edge id=":B0_6" function="internal">
        <lane id=":B0_6_0" index="0" speed="6.22" length="9.05" shape="118.38,7.39,182.72 118.38,4.86,182.72 117.55,3.05,182.72 115.88,1.96,182.72 113.37,1.60,182.72"/>
    </edge>
    <edge id=":B0_7" function="internal">
        <lane id=":B0_7_0" index="0" speed="8.52" length="14.45" shape="118.38,7.39,182.72 119.46,3.46,182.72 121.40,0.65,182.72 124.19,-1.04,182.72 127.84,-1.60,182.72"/>
    </edge>
    <edge id=":B0_8" function="internal">
        <lane id=":B0_8_0" index="0" speed="3.65" length="4.67" shape="118.38,7.39,182.72 119.34,6.32,182.72 120.19,6.04,182.72 120.93,6.55,182.72 121.55,7.85,182.72"/>
    </edge>
    <edge id=":B1_0" function="internal">
        <lane id=":B1_0_0" index="0" speed="13.89" length="19.70" shape="119.41,101.60,175.46 99.71,101.60,175.46"/>
    </edge>
    <edge id=":B1_1" function="internal">
        <lane id=":B1_1_0" index="0" speed="8.74" length="9.09" shape="119.41,101.60,175.46 113.03,101.01,175.46 110.54,100.00,175.46"/>
    </edge>
    <edge id=":B1_2" function="internal">
        <lane id=":B1_2_0" index="0" speed="3.65" length="2.34" shape="119.41,101.60,175.46 118.21,100.80,175.46 117.81,100.00,175.46"/>
    </edge>
    <edge id=":B1_9" function="internal">
        <lane id=":B1_9_0" index="0" speed="8.74" length="9.94" shape="110.54,100.00,175.46 108.67,99.24,175.46 106.33,96.28,175.46 106.00,92.15,175.46"/>
    </edge>
    <edge id=":B1_10" function="internal">
        <lane id=":B1_10_0" index="0" speed="3.65" length="2.34" shape="117.81,100.00,175.46 118.21,99.20,175.46 119.41,98.40,175.46"/>
    </edge>
    <edge id=":B1_3" function="internal">
        <lane id=":B1_3_0" index="0" speed="7.42" length="13.40" shape="109.17,92.61,175.46 109.49,95.14,175.46 111.31,96.95,175.46 114.61,98.04,175.46 119.41,98.40,175.46"/>
    </edge>
    <edge id=":B1_4" function="internal">
        <lane id=":B1_4_0" index="0" speed="8.52" length="14.45" shape="109.17,92.61,175.46 108.09,96.54,175.46 106.15,99.35,175.46 103.36,101.04,175.46 99.71,101.60,175.46"/>
    </edge>
    <edge id=":B1_5" function="internal">
        <lane id=":B1_5_0" index="0" speed="3.65" length="4.67" shape="109.17,92.61,175.46 108.21,93.68,175.46 107.36,93.96,175.46 106.62,93.45,175.46 106.00,92.15,175.46"/>
    </edge>
    <edge id=":B1_6" function="internal">
        <lane id=":B1_6_0" index="0" speed="7.12" length="9.81" shape="99.71,98.40,175.46 102.12,98.01,175.46 103.97,96.84,175.46 105.27,94.88,175.46 106.00,92.15,175.46"/>
    </edge>
    <edge id=":B1_7" function="internal">
        <lane id=":B1_7_0" index="0" speed="13.89" length="19.70" shape="99.71,98.40,175.46 119.41,98.40,175.46"/>
    </edge>
    <edge id=":B1_8" function="internal">
        <lane id=":B1_8_0" index="0" speed="3.65" length="2.34" shape="99.71,98.40,175.46 100.91,99.20,175.46 101.31,100.00,175.46"/>
    </edge>
    <edge id=":B1_11" function="internal">
        <lane id=":B1_11_0" index="0" speed="3.65" length="2.34" shape="101.31,100.00,175.46 100.91,100.80,175.46 99.71,101.60,175.46"/>
    </edge>
    <edge id=":C0_0" function="internal">
        <lane id=":C0_0_0" index="0" speed="7.51" length="10.27" shape="246.55,1.60,175.78 244.15,2.01,175.78 242.22,3.24,175.78 240.77,5.29,175.78 239.79,8.16,175.78"/>
    </edge>
    <edge id=":C0_1" function="internal">
        <lane id=":C0_1_0" index="0" speed="13.89" length="14.56" shape="246.55,1.60,175.78 231.99,1.60,175.78"/>
    </edge>
    <edge id=":C0_2" function="internal">
        <lane id=":C0_2_0" index="0" speed="3.65" length="2.34" shape="246.55,1.60,175.78 245.35,0.80,175.78 244.95,0.00,175.78"/>
    </edge>
    <edge id=":C0_9" function="internal">
        <lane id=":C0_9_0" index="0" speed="3.65" length="2.34" shape="244.95,0.00,175.78 245.35,-0.80,175.78 246.55,-1.60,175.78"/>
    </edge>
    <edge id=":C0_3" function="internal">
        <lane id=":C0_3_0" index="0" speed="13.89" length="14.56" shape="231.99,-1.60,175.78 246.55,-1.60,175.78"/>
    </edge>
    <edge id=":C0_4" function="internal">
        <lane id=":C0_4_0" index="0" speed="7.66" length="6.05" shape="231.99,-1.60,175.78 236.23,-0.99,175.78 237.70,0.00,175.78"/>
    </edge>
    <edge id=":C0_5" function="internal">
        <lane id=":C0_5_0" index="0" speed="3.65" length="2.34" shape="231.99,-1.60,175.78 233.19,-0.80,175.78 233.59,0.00,175.78"/>
    </edge>
    <edge id=":C0_10" function="internal">
        <lane id=":C0_10_0" index="0" speed="7.66" length="9.06" shape="237.70,0.00,175.78 238.94,0.84,175.78 240.13,3.89,175.78 239.79,8.16,175.78"/>
    </edge>
    <edge id=":C0_11" function="internal">
        <lane id=":C0_11_0" index="0" speed="3.65" length="2.34" shape="233.59,0.00,175.78 233.19,0.80,175.78 231.99,1.60,175.78"/>
    </edge>
    <edge id=":C0_6" function="internal">
        <lane id=":C0_6_0" index="0" speed="6.08" length="9.06" shape="236.67,7.45,175.78 236.87,4.89,175.78 236.16,3.06,175.78 234.53,1.97,175.78 231.99,1.60,175.78"/>
    </edge>
    <edge id=":C0_7" function="internal">
        <lane id=":C0_7_0" index="0" speed="8.86" length="14.63" shape="236.67,7.45,175.78 238.05,3.49,175.78 240.16,0.66,175.78 243.00,-1.03,175.78 246.55,-1.60,175.78"/>
    </edge>
    <edge id=":C0_8" function="internal">
        <lane id=":C0_8_0" index="0" speed="3.65" length="4.67" shape="236.67,7.45,175.78 237.71,6.46,175.78 238.58,6.25,175.78 239.27,6.81,175.78 239.79,8.16,175.78"/>
    </edge>
    <edge id=":C1_0" function="internal">
        <lane id=":C1_0_0" index="0" speed="13.89" length="14.56" shape="225.40,101.60,-143.80 210.84,101.60,-143.80"/>
    </edge>
    <edge id=":C1_1" function="internal">
        <lane id=":C1_1_0" index="0" speed="7.66" length="6.05" shape="225.40,101.60,-143.80 221.16,100.99,-143.80 219.69,100.00,-143.80"/>
    </edge>
    <edge id=":C1_2" function="internal">
        <lane id=":C1_2_0" index="0" speed="3.65" length="2.34" shape="225.40,101.60,-143.80 224.20,100.80,-143.80 223.80,100.00,-143.80"/>
    </edge>
    <edge id=":C1_9" function="internal">
        <lane id=":C1_9_0" index="0" speed="7.66" length="9.06" shape="219.69,100.00,-143.80 218.45,99.16,-143.80 217.26,96.11,-143.80 217.60,91.84,-143.80"/>
    </edge>
    <edge id=":C1_10" function="internal">
        <lane id=":C1_10_0" index="0" speed="3.65" length="2.34" shape="223.80,100.00,-143.80 224.20,99.20,-143.80 225.40,98.40,-143.80"/>
    </edge>
    <edge id=":C1_3" function="internal">
        <lane id=":C1_3_0" index="0" speed="6.08" length="9.06" shape="220.72,92.55,-143.80 220.52,95.11,-143.80 221.23,96.94,-143.80 222.86,98.03,-143.80 225.40,98.40,-143.80"/>
    </edge>
    <edge id=":C1_4" function="internal">
        <lane id=":C1_4_0" index="0" speed="8.86" length="14.63" shape="220.72,92.55,-143.80 219.34,96.51,-143.80 217.23,99.34,-143.80 214.40,101.03,-143.80 210.84,101.60,-143.80"/>
    </edge>
    <edge id=":C1_5" function="internal">
        <lane id=":C1_5_0" index="0" speed="3.65" length="4.67" shape="220.72,92.55,-143.80 219.68,93.54,-143.80 218.81,93.75,-143.80 218.12,93.19,-143.80 217.60,91.84,-143.80"/>
    </edge>
    <edge id=":C1_6" function="internal">
        <lane id=":C1_6_0" index="0" speed="7.51" length="10.27" shape="210.84,98.40,-143.80 213.24,97.99,-143.80 215.17,96.76,-143.80 216.62,94.71,-143.80 217.60,91.84,-143.80"/>
    </edge>
    <edge id=":C1_7" function="internal">
        <lane id=":C1_7_0" index="0" speed="13.89" length="14.56" shape="210.84,98.40,-143.80 225.40,98.40,-143.80"/>
    </edge>
    <edge id=":C1_8" function="internal">
        <lane id=":C1_8_0" index="0" speed="3.65" length="2.34" shape="210.84,98.40,-143.80 212.04,99.20,-143.80 212.44,100.00,-143.80"/>
    </edge>
    <edge id=":C1_11" function="internal">
        <lane id=":C1_11_0" index="0" speed="3.65" length="2.34" shape="212.44,100.00,-143.80 212.04,100.80,-143.80 210.84,101.60,-143.80"/>
    </edge>
    <edge id=":D0_0" function="internal">
        <lane id=":D0_0_0" index="0" speed="6.66" length="9.23" shape="326.57,1.60,54.86 324.13,1.96,54.86 322.36,3.05,54.86 321.25,4.85,54.86 320.80,7.39,54.86"/>
    </edge>
    <edge id=":D0_1" function="internal">
        <lane id=":D0_1_0" index="0" speed="13.89" length="14.40" shape="326.57,1.60,54.86 312.17,1.60,54.86"/>
    </edge>
    <edge id=":D0_2" function="internal">
        <lane id=":D0_2_0" index="0" speed="3.65" length="2.34" shape="326.57,1.60,54.86 325.37,0.80,54.86 324.97,0.00,54.86"/>
    </edge>
    <edge id=":D0_9" function="internal">
        <lane id=":D0_9_0" index="0" speed="3.65" length="2.34" shape="324.97,0.00,54.86 325.37,-0.80,54.86 326.57,-1.60,54.86"/>
    </edge>
    <edge id=":D0_3" function="internal">
        <lane id=":D0_3_0" index="0" speed="13.89" length="14.40" shape="312.17,-1.60,54.86 326.57,-1.60,54.86"/>
    </edge>
    <edge id=":D0_4" function="internal">
        <lane id=":D0_4_0" index="0" speed="7.93" length="5.94" shape="312.17,-1.60,54.86 316.08,-1.04,54.86 317.77,0.00,54.86"/>
    </edge>
    <edge id=":D0_5" function="internal">
        <lane id=":D0_5_0" index="0" speed="3.65" length="2.34" shape="312.17,-1.60,54.86 313.37,-0.80,54.86 313.77,0.00,54.86"/>
    </edge>
    <edge id=":D0_10" function="internal">
        <lane id=":D0_10_0" index="0" speed="7.93" length="8.41" shape="317.77,0.00,54.86 318.82,0.65,54.86 320.40,3.45,54.86 320.80,7.39,54.86"/>
    </edge>
    <edge id=":D0_11" function="internal">
        <lane id=":D0_11_0" index="0" speed="3.65" length="2.34" shape="313.77,0.00,54.86 313.37,0.80,54.86 312.17,1.60,54.86"/>
    </edge>
    <edge id=":D0_6" function="internal">
        <lane id=":D0_6_0" index="0" speed="6.42" length="9.04" shape="317.61,7.26,54.86 317.35,4.78,54.86 316.36,3.01,54.86 314.63,1.95,54.86 312.17,1.60,54.86"/>
    </edge>
    <edge id=":D0_7" function="internal">
        <lane id=":D0_7_0" index="0" speed="8.13" length="14.25" shape="317.61,7.26,54.86 318.30,3.38,54.86 320.02,0.61,54.86 322.78,-1.05,54.86 326.57,-1.60,54.86"/>
    </edge>
    <edge id=":D0_8" function="internal">
        <lane id=":D0_8_0" index="0" speed="3.65" length="4.67" shape="317.61,7.26,54.86 318.45,6.09,54.86 319.27,5.72,54.86 320.05,6.16,54.86 320.80,7.39,54.86"/>
    </edge>
    <edge id=":D1_0" function="internal">
        <lane id=":D1_0_0" index="0" speed="13.89" length="14.40" shape="322.89,101.60,-78.70 308.48,101.60,-78.70"/>
    </edge>
    <edge id=":D1_1" function="internal">
        <lane id=":D1_1_0" index="0" speed="7.93" length="5.94" shape="322.89,101.60,-78.70 318.98,101.04,-78.70 317.29,100.00,-78.70"/>
    </edge>
    <edge id=":D1_2" function="internal">
        <lane id=":D1_2_0" index="0" speed="3.65" length="2.34" shape="322.89,101.60,-78.70 321.69,100.80,-78.70 321.29,100.00,-78.70"/>
    </edge>
    <edge id=":D1_9" function="internal">
        <lane id=":D1_9_0" index="0" speed="7.93" length="8.41" shape="317.29,100.00,-78.70 316.23,99.35,-78.70 314.66,96.55,-78.70 314.25,92.61,-78.70"/>
    </edge>
    <edge id=":D1_10" function="internal">
        <lane id=":D1_10_0" index="0" speed="3.65" length="2.34" shape="321.29,100.00,-78.70 321.69,99.20,-78.70 322.89,98.40,-78.70"/>
    </edge>
    <edge id=":D1_3" function="internal">
        <lane id=":D1_3_0" index="0" speed="6.42" length="9.04" shape="317.45,92.74,-78.70 317.70,95.22,-78.70 318.70,96.99,-78.70 320.42,98.05,-78.70 322.89,98.40,-78.70"/>
    </edge>
    <edge id=":D1_4" function="internal">
        <lane id=":D1_4_0" index="0" speed="8.13" length="14.25" shape="317.45,92.74,-78.70 316.76,96.62,-78.70 315.03,99.39,-78.70 312.27,101.05,-78.70 308.48,101.60,-78.70"/>
    </edge>
    <edge id=":D1_5" function="internal">
        <lane id=":D1_5_0" index="0" speed="3.65" length="4.67" shape="317.45,92.74,-78.70 316.60,93.91,-78.70 315.79,94.28,-78.70 315.00,93.84,-78.70 314.25,92.61,-78.70"/>
    </edge>
    <edge id=":D1_6" function="internal">
        <lane id=":D1_6_0" index="0" speed="6.66" length="9.23" shape="308.48,98.40,-78.70 310.92,98.04,-78.70 312.69,96.95,-78.70 313.80,95.15,-78.70 314.25,92.61,-78.70"/>
    </edge>
    <edge id=":D1_7" function="internal">
        <lane id=":D1_7_0" index="0" speed="13.89" length="14.40" shape="308.48,98.40,-78.70 322.89,98.40,-78.70"/>
    </edge>
    <edge id=":D1_8" function="internal">
        <lane id=":D1_8_0" index="0" speed="3.65" length="2.34" shape="308.48,98.40,-78.70 309.68,99.20,-78.70 310.08,100.00,-78.70"/>
    </edge>
    <edge id=":D1_11" function="internal">
        <lane id=":D1_11_0" index="0" speed="3.65" length="2.34" shape="310.08,100.00,-78.70 309.68,100.80,-78.70 308.48,101.60,-78.70"/>
    </edge>
    <edge id=":E0_0" function="internal">
        <lane id=":E0_0_0" index="0" speed="6.61" length="9.17" shape="394.00,7.33,65.79 393.58,4.82,65.79 392.49,3.03,65.79 390.73,1.96,65.79 388.28,1.60,65.79"/>
    </edge>
    <edge id=":E0_1" function="internal">
        <lane id=":E0_1_0" index="0" speed="7.95" length="14.30" shape="394.00,7.33,65.79 394.45,3.42,65.79 396.05,0.63,65.79 398.79,-1.04,65.79 402.69,-1.60,65.79"/>
    </edge>
    <edge id=":E0_2" function="internal">
        <lane id=":E0_2_0" index="0" speed="3.65" length="4.67" shape="394.00,7.33,65.79 394.76,6.11,65.79 395.55,5.69,65.79 396.36,6.06,65.79 397.20,7.24,65.79"/>
    </edge>
    <edge id=":E0_3" function="internal">
        <lane id=":E0_3_0" index="0" speed="6.45" length="9.03" shape="402.69,1.60,65.79 400.23,1.95,65.79 398.49,3.01,65.79 397.48,4.77,65.79 397.20,7.24,65.79"/>
    </edge>
    <edge id=":E0_4" function="internal">
        <lane id=":E0_4_0" index="0" speed="13.89" length="14.40" shape="402.69,1.60,65.79 388.28,1.60,65.79"/>
    </edge>
    <edge id=":E0_5" function="internal">
        <lane id=":E0_5_0" index="0" speed="3.65" length="2.34" shape="402.69,1.60,65.79 401.49,0.80,65.79 401.09,0.00,65.79"/>
    </edge>
    <edge id=":E0_9" function="internal">
        <lane id=":E0_9_0" index="0" speed="3.65" length="2.34" shape="401.09,0.00,65.79 401.49,-0.80,65.79 402.69,-1.60,65.79"/>
    </edge>
    <edge id=":E0_6" function="internal">
        <lane id=":E0_6_0" index="0" speed="13.89" length="14.40" shape="388.28,-1.60,65.79 402.69,-1.60,65.79"/>
    </edge>
    <edge id=":E0_7" function="internal">
        <lane id=":E0_7_0" index="0" speed="8.09" length="5.88" shape="388.28,-1.60,65.79 392.09,-1.05,65.79 393.83,0.00,65.79"/>
    </edge>
    <edge id=":E0_8" function="internal">
        <lane id=":E0_8_0" index="0" speed="3.65" length="2.34" shape="388.28,-1.60,65.79 389.48,-0.80,65.79 389.88,0.00,65.79"/>
    </edge>
    <edge id=":E0_10" function="internal">
        <lane id=":E0_10_0" index="0" speed="8.09" length="8.35" shape="393.83,0.00,65.79 394.85,0.61,65.79 396.55,3.37,65.79 397.20,7.24,65.79"/>
    </edge>
    <edge id=":E0_11" function="internal">
        <lane id=":E0_11_0" index="0" speed="3.65" length="2.34" shape="389.88,0.00,65.79 389.48,0.80,65.79 388.28,1.60,65.79"/>
    </edge>
    <edge id=":E1_0" function="internal">
        <lane id=":E1_0_0" index="0" speed="13.89" length="14.40" shape="405.22,101.60,109.99 390.82,101.60,109.99"/>
    </edge>
    <edge id=":E1_1" function="internal">
        <lane id=":E1_1_0" index="0" speed="8.09" length="5.88" shape="405.22,101.60,109.99 401.42,101.05,109.99 399.68,100.00,109.99"/>
    </edge>
    <edge id=":E1_2" function="internal">
        <lane id=":E1_2_0" index="0" speed="3.65" length="2.34" shape="405.22,101.60,109.99 404.02,100.80,109.99 403.62,100.00,109.99"/>
    </edge>
    <edge id=":E1_9" function="internal">
        <lane id=":E1_9_0" index="0" speed="8.09" length="8.35" shape="399.68,100.00,109.99 398.66,99.39,109.99 396.96,96.63,109.99 396.31,92.76,109.99"/>
    </edge>
    <edge id=":E1_10" function="internal">
        <lane id=":E1_10_0" index="0" speed="3.65" length="2.34" shape="403.62,100.00,109.99 404.02,99.20,109.99 405.22,98.40,109.99"/>
    </edge>
    <edge id=":E1_3" function="internal">
        <lane id=":E1_3_0" index="0" speed="6.61" length="9.17" shape="399.51,92.67,109.99 399.93,95.18,109.99 401.02,96.97,109.99 402.78,98.04,109.99 405.22,98.40,109.99"/>
    </edge>
    <edge id=":E1_4" function="internal">
        <lane id=":E1_4_0" index="0" speed="7.95" length="14.30" shape="399.51,92.67,109.99 399.06,96.58,109.99 397.46,99.37,109.99 394.72,101.04,109.99 390.82,101.60,109.99"/>
    </edge>
    <edge id=":E1_5" function="internal">
        <lane id=":E1_5_0" index="0" speed="3.65" length="4.67" shape="399.51,92.67,109.99 398.75,93.89,109.99 397.96,94.31,109.99 397.15,93.94,109.99 396.31,92.76,109.99"/>
    </edge>
    <edge id=":E1_6" function="internal">
        <lane id=":E1_6_0" index="0" speed="6.45" length="9.03" shape="390.82,98.40,109.99 393.28,98.05,109.99 395.02,96.99,109.99 396.03,95.23,109.99 396.31,92.76,109.99"/>
    </edge>
    <edge id=":E1_7" function="internal">
        <lane id=":E1_7_0" index="0" speed="13.89" length="14.40" shape="390.82,98.40,109.99 405.22,98.40,109.99"/>
    </edge>
    <edge id=":E1_8" function="internal">
        <lane id=":E1_8_0" index="0" speed="3.65" length="2.34" shape="390.82,98.40,109.99 392.02,99.20,109.99 392.42,100.00,109.99"/>
    </edge>
    <edge id=":E1_11" function="internal">
        <lane id=":E1_11_0" index="0" speed="3.65" length="2.34" shape="392.42,100.00,109.99 392.02,100.80,109.99 390.82,101.60,109.99"/>
    </edge>
    <edge id=":F0_0" function="internal">
        <lane id=":F0_0_0" index="0" speed="9.51" length="12.36" shape="529.89,9.06,-25.48 527.71,5.79,-25.48 525.46,3.46,-25.48 523.12,2.07,-25.48 520.69,1.60,-25.48"/>
    </edge>
    <edge id=":F0_1" function="internal">
        <lane id=":F0_1_0" index="0" speed="7.41" length="16.78" shape="529.89,9.06,-25.48 527.99,4.39,-25.48 528.38,1.06,-25.48 531.08,-0.93,-25.48 536.07,-1.60,-25.48"/>
    </edge>
    <edge id=":F0_2" function="internal">
        <lane id=":F0_2_0" index="0" speed="3.65" length="4.67" shape="529.89,9.06,-25.48 529.98,7.62,-25.48 530.48,6.87,-25.48 531.37,6.82,-25.48 532.66,7.47,-25.48"/>
    </edge>
    <edge id=":F0_3" function="internal">
        <lane id=":F0_3_0" index="0" speed="5.67" length="9.24" shape="536.07,1.60,-25.48 533.32,1.97,-25.48 531.84,3.07,-25.48 531.62,4.90,-25.48 532.66,7.47,-25.48"/>
    </edge>
    <edge id=":F0_4" function="internal">
        <lane id=":F0_4_0" index="0" speed="13.89" length="15.37" shape="536.07,1.60,-25.48 520.69,1.60,-25.48"/>
    </edge>
    <edge id=":F0_5" function="internal">
        <lane id=":F0_5_0" index="0" speed="3.65" length="2.34" shape="536.07,1.60,-25.48 534.87,0.80,-25.48 534.47,0.00,-25.48"/>
    </edge>
    <edge id=":F0_9" function="internal">
        <lane id=":F0_9_0" index="0" speed="3.65" length="2.34" shape="534.47,0.00,-25.48 534.87,-0.80,-25.48 536.07,-1.60,-25.48"/>
    </edge>
    <edge id=":F0_6" function="internal">
        <lane id=":F0_6_0" index="0" speed="13.89" length="15.37" shape="520.69,-1.60,-25.48 536.07,-1.60,-25.48"/>
    </edge>
    <edge id=":F0_7" function="internal">
        <lane id=":F0_7_0" index="0" speed="10.67" length="5.49" shape="520.69,-1.60,-25.48 523.98,-1.03,-25.48 525.86,0.00,-25.48"/>
    </edge>
    <edge id=":F0_8" function="internal">
        <lane id=":F0_8_0" index="0" speed="3.65" length="2.34" shape="520.69,-1.60,-25.48 521.89,-0.80,-25.48 522.29,0.00,-25.48"/>
    </edge>
    <edge id=":F0_10" function="internal">
        <lane id=":F0_10_0" index="0" speed="10.67" length="10.23" shape="525.86,0.00,-25.48 527.08,0.67,-25.48 529.97,3.50,-25.48 532.66,7.47,-25.48"/>
    </edge>
    <edge id=":F0_11" function="internal">
        <lane id=":F0_11_0" index="0" speed="3.65" length="2.34" shape="522.29,0.00,-25.48 521.89,0.80,-25.48 520.69,1.60,-25.48"/>
    </edge>
    <edge id=":F1_0" function="internal">
        <lane id=":F1_0_0" index="0" speed="13.89" length="15.35" shape="589.60,101.60,93.99 574.25,101.60,93.99"/>
    </edge>
    <edge id=":F1_1" function="internal">
        <lane id=":F1_1_0" index="0" speed="10.67" length="5.47" shape="589.60,101.60,93.99 586.32,101.03,93.99 584.44,100.00,93.99"/>
    </edge>
    <edge id=":F1_2" function="internal">
        <lane id=":F1_2_0" index="0" speed="3.65" length="2.34" shape="589.60,101.60,93.99 588.40,100.79,93.99 588.01,99.99,93.99"/>
    </edge>
    <edge id=":F1_9" function="internal">
        <lane id=":F1_9_0" index="0" speed="10.67" length="10.22" shape="584.44,100.00,93.99 583.23,99.33,93.99 580.34,96.50,93.99 577.65,92.53,93.99"/>
    </edge>
    <edge id=":F1_10" function="internal">
        <lane id=":F1_10_0" index="0" speed="3.65" length="2.34" shape="588.01,99.99,93.99 588.42,99.19,93.99 589.62,98.40,93.99"/>
    </edge>
    <edge id=":F1_3" function="internal">
        <lane id=":F1_3_0" index="0" speed="9.51" length="12.36" shape="580.43,90.94,93.99 582.60,94.21,93.99 584.86,96.54,93.99 587.20,97.93,93.99 589.62,98.40,93.99"/>
    </edge>
    <edge id=":F1_4" function="internal">
        <lane id=":F1_4_0" index="0" speed="7.41" length="16.78" shape="580.43,90.94,93.99 582.33,95.61,93.99 581.93,98.94,93.99 579.24,100.93,93.99 574.25,101.60,93.99"/>
    </edge>
    <edge id=":F1_5" function="internal">
        <lane id=":F1_5_0" index="0" speed="3.65" length="4.67" shape="580.43,90.94,93.99 580.33,92.38,93.99 579.83,93.13,93.99 578.94,93.18,93.99 577.65,92.53,93.99"/>
    </edge>
    <edge id=":F1_6" function="internal">
        <lane id=":F1_6_0" index="0" speed="5.67" length="9.24" shape="574.25,98.40,93.99 577.00,98.03,93.99 578.48,96.93,93.99 578.70,95.10,93.99 577.65,92.53,93.99"/>
    </edge>
    <edge id=":F1_7" function="internal">
        <lane id=":F1_7_0" index="0" speed="13.89" length="15.37" shape="574.25,98.40,93.99 589.62,98.40,93.99"/>
    </edge>
    <edge id=":F1_8" function="internal">
        <lane id=":F1_8_0" index="0" speed="3.65" length="2.34" shape="574.25,98.40,93.99 575.45,99.20,93.99 575.85,100.00,93.99"/>
    </edge>
    <edge id=":F1_11" function="internal">
        <lane id=":F1_11_0" index="0" speed="3.65" length="2.34" shape="575.85,100.00,93.99 575.45,100.80,93.99 574.25,101.60,93.99"/>
    </edge>
    <edge id=":G0_0" function="internal">
        <lane id=":G0_0_0" index="0" speed="7.02" length="9.69" shape="635.07,1.60,60.52 632.66,1.98,60.52 630.82,3.14,60.52 629.57,5.06,60.52 628.90,7.76,60.52"/>
    </edge>
    <edge id=":G0_1" function="internal">
        <lane id=":G0_1_0" index="0" speed="13.89" length="14.45" shape="635.07,1.60,60.52 620.63,1.60,60.52"/>
    </edge>
    <edge id=":G0_2" function="internal">
        <lane id=":G0_2_0" index="0" speed="3.65" length="2.34" shape="635.07,1.60,60.52 633.87,0.80,60.52 633.47,0.00,60.52"/>
    </edge>
    <edge id=":G0_9" function="internal">
        <lane id=":G0_9_0" index="0" speed="3.65" length="2.34" shape="633.47,0.00,60.52 633.87,-0.80,60.52 635.07,-1.60,60.52"/>
    </edge>
    <edge id=":G0_3" function="internal">
        <lane id=":G0_3_0" index="0" speed="13.89" length="14.45" shape="620.63,-1.60,60.52 635.07,-1.60,60.52"/>
    </edge>
    <edge id=":G0_4" function="internal">
        <lane id=":G0_4_0" index="0" speed="7.80" length="5.97" shape="620.63,-1.60,60.52 624.68,-1.02,60.52 626.26,-0.00,60.52"/>
    </edge>
    <edge id=":G0_5" function="internal">
        <lane id=":G0_5_0" index="0" speed="3.65" length="2.34" shape="620.63,-1.60,60.52 621.83,-0.80,60.52 622.23,0.00,60.52"/>
    </edge>
    <edge id=":G0_10" function="internal">
        <lane id=":G0_10_0" index="0" speed="7.80" length="8.71" shape="626.26,-0.00,60.52 627.41,0.74,60.52 628.82,3.66,60.52 628.90,7.76,60.52"/>
    </edge>
    <edge id=":G0_11" function="internal">
        <lane id=":G0_11_0" index="0" speed="3.65" length="2.34" shape="622.23,0.00,60.52 621.83,0.80,60.52 620.63,1.60,60.52"/>
    </edge>
    <edge id=":G0_6" function="internal">
        <lane id=":G0_6_0" index="0" speed="6.26" length="9.05" shape="625.72,7.37,60.52 625.67,4.84,60.52 624.80,3.04,60.52 623.12,1.96,60.52 620.63,1.60,60.52"/>
    </edge>
    <edge id=":G0_7" function="internal">
        <lane id=":G0_7_0" index="0" speed="8.44" length="14.40" shape="625.72,7.37,60.52 626.72,3.44,60.52 628.61,0.64,60.52 631.40,-1.04,60.52 635.07,-1.60,60.52"/>
    </edge>
    <edge id=":G0_8" function="internal">
        <lane id=":G0_8_0" index="0" speed="3.65" length="4.67" shape="625.72,7.37,60.52 626.66,6.27,60.52 627.51,5.97,60.52 628.25,6.47,60.52 628.90,7.76,60.52"/>
    </edge>
    <edge id=":G1_0" function="internal">
        <lane id=":G1_0_0" index="0" speed="13.89" length="14.45" shape="623.52,101.60,-57.44 609.07,101.60,-57.44"/>
    </edge>
    <edge id=":G1_1" function="internal">
        <lane id=":G1_1_0" index="0" speed="7.80" length="5.97" shape="623.52,101.60,-57.44 619.47,101.02,-57.44 617.89,100.00,-57.44"/>
    </edge>
    <edge id=":G1_2" function="internal">
        <lane id=":G1_2_0" index="0" speed="3.65" length="2.34" shape="623.52,101.60,-57.44 622.32,100.80,-57.44 621.92,100.00,-57.44"/>
    </edge>
    <edge id=":G1_9" function="internal">
        <lane id=":G1_9_0" index="0" speed="7.80" length="8.71" shape="617.89,100.00,-57.44 616.74,99.26,-57.44 615.33,96.34,-57.44 615.25,92.24,-57.44"/>
    </edge>
    <edge id=":G1_10" function="internal">
        <lane id=":G1_10_0" index="0" speed="3.65" length="2.34" shape="621.92,100.00,-57.44 622.32,99.20,-57.44 623.52,98.40,-57.44"/>
    </edge>
    <edge id=":G1_3" function="internal">
        <lane id=":G1_3_0" index="0" speed="6.26" length="9.05" shape="618.42,92.63,-57.44 618.48,95.16,-57.44 619.34,96.96,-57.44 621.03,98.04,-57.44 623.52,98.40,-57.44"/>
    </edge>
    <edge id=":G1_4" function="internal">
        <lane id=":G1_4_0" index="0" speed="8.44" length="14.40" shape="618.42,92.63,-57.44 617.43,96.56,-57.44 615.53,99.36,-57.44 612.75,101.04,-57.44 609.07,101.60,-57.44"/>
    </edge>
    <edge id=":G1_5" function="internal">
        <lane id=":G1_5_0" index="0" speed="3.65" length="4.67" shape="618.42,92.63,-57.44 617.48,93.73,-57.44 616.64,94.03,-57.44 615.90,93.53,-57.44 615.25,92.24,-57.44"/>
    </edge>
    <edge id=":G1_6" function="internal">
        <lane id=":G1_6_0" index="0" speed="7.02" length="9.69" shape="609.07,98.40,-57.44 611.49,98.02,-57.44 613.33,96.86,-57.44 614.58,94.94,-57.44 615.25,92.24,-57.44"/>
    </edge>