<?xml version="1.0" encoding="UTF-8"?>

<!-- generated on 07/22/20 21:49:16 by Eclipse SUMO netgenerate Version 1.5.0
<configuration xmlns:xsi="http://www.w3.org/2001/XMLSchema-instance" xsi:noNamespaceSchemaLocation="http://sumo.dlr.de/xsd/netgenerateConfiguration.xsd">

    <grid_network>
        <grid value="true"/>
        <grid.x-number value="20"/>
        <grid.y-number value="2"/>
    </grid_network>

    <output>
        <output-file value="3.net.xml"/>
    </output>

    <processing>
        <perturb-x value="40"/>
        <perturb-z value="100"/>
    </processing>

    <random_number>
        <seed value="65462332"/>
    </random_number>

</configuration>
-->

<net version="1.3" junctionCornerDetail="5" limitTurnSpeed="5.50" xmlns:xsi="http://www.w3.org/2001/XMLSchema-instance" xsi:noNamespaceSchemaLocation="http://sumo.dlr.de/xsd/net_file.xsd">

    <location netOffset="20.29,0.00" convBoundary="0.00,0.00,1993.80,100.00" origBoundary="-20.29,0.00,1973.50,100.00" projParameter="!"/>

    <edge id=":A0_0" function="internal">
        <lane id=":A0_0_0" index="0" speed="3.91" length="5.48" shape="14.26,1.60,39.42 13.63,1.69,38.09 13.15,1.95,36.95 12.83,2.40,35.82 12.67,3.02,34.48"/>
    </edge>
    <edge id=":A0_1" function="internal">
        <lane id=":A0_1_0" index="0" speed="6.10" length="8.71" shape="9.49,2.66,34.48 9.97,0.79,35.84 10.93,-0.54,36.99 12.36,-1.33,38.14 14.26,-1.60,39.50"/>
    </edge>
    <edge id=":A1_0" function="internal">
        <lane id=":A1_0_0" index="0" speed="6.07" length="10.35" shape="3.59,101.60,-165.17 1.27,101.27,-163.48 -0.30,100.26,-162.14 -1.11,98.59,-160.81 -1.18,96.26,-159.12"/>
    </edge>
    <edge id=":A1_1" function="internal">
        <lane id=":A1_1_0" index="0" speed="3.90" length="6.69" shape="2.00,96.62,-159.12 2.02,97.40,-160.81 2.29,97.95,-162.16 2.81,98.29,-163.50 3.59,98.40,-165.19"/>
    </edge>
    <edge id=":B0_0" function="internal">
        <lane id=":B0_0_0" index="0" speed="13.89" length="16.91" shape="83.92,9.44,21.49 80.65,6.93,21.49 76.96,4.38,21.49 73.07,2.40,21.49 69.22,1.60,21.49"/>
    </edge>
    <edge id=":B0_1" function="internal">
        <lane id=":B0_1_0" index="0" speed="7.56" length="21.32" shape="83.92,9.44,21.49 78.79,4.61,21.49 77.71,1.16,21.49 80.68,-0.91,21.49 87.69,-1.60,21.49"/>
    </edge>
    <edge id=":B0_2" function="internal">
        <lane id=":B0_2_0" index="0" speed="3.65" length="4.67" shape="83.92,9.44,21.49 83.46,8.08,21.49 83.63,7.20,21.49 84.43,6.81,21.49 85.87,6.91,21.49"/>
    </edge>
    <edge id=":B0_3" function="internal">
        <lane id=":B0_3_0" index="0" speed="5.46" length="10.25" shape="87.69,1.60,21.49 84.31,1.93,21.49 82.89,2.93,21.49 83.41,4.59,21.49 85.87,6.91,21.49"/>
    </edge>
    <edge id=":B0_4" function="internal">
        <lane id=":B0_4_0" index="0" speed="13.89" length="18.47" shape="87.69,1.60,21.49 69.22,1.60,21.49"/>
    </edge>
    <edge id=":B0_5" function="internal">
        <lane id=":B0_5_0" index="0" speed="3.65" length="2.34" shape="87.69,1.60,21.49 86.49,0.80,21.49 86.09,0.00,21.49"/>
    </edge>
    <edge id=":B0_9" function="internal">
        <lane id=":B0_9_0" index="0" speed="3.65" length="2.34" shape="86.09,0.00,21.49 86.49,-0.80,21.49 87.69,-1.60,21.49"/>
    </edge>
    <edge id=":B0_6" function="internal">
        <lane id=":B0_6_0" index="0" speed="13.89" length="18.47" shape="69.22,-1.60,21.49 87.69,-1.60,21.49"/>
    </edge>
    <edge id=":B0_7" function="internal">
        <lane id=":B0_7_0" index="0" speed="13.89" length="5.86" shape="69.22,-1.60,21.49 73.37,-0.70,21.49 74.82,0.00,21.49"/>
    </edge>
    <edge id=":B0_8" function="internal">
        <lane id=":B0_8_0" index="0" speed="3.65" length="2.34" shape="69.22,-1.60,21.49 70.42,-0.80,21.49 70.82,-0.00,21.49"/>
    </edge>
    <edge id=":B0_10" function="internal">
        <lane id=":B0_10_0" index="0" speed="13.89" length="13.07" shape="74.82,0.00,21.49 77.94,1.51,21.49 82.30,4.29,21.49 85.87,6.91,21.49"/>
    </edge>
    <edge id=":B0_11" function="internal">
        <lane id=":B0_11_0" index="0" speed="3.65" length="2.34" shape="70.82,-0.00,21.49 70.42,0.80,21.49 69.22,1.60,21.49"/>
    </edge>
    <edge id=":B1_0" function="internal">
        <lane id=":B1_0_0" index="0" speed="13.89" length="18.47" shape="208.85,101.60,-92.87 190.38,101.60,-92.87"/>
    </edge>
    <edge id=":B1_1" function="internal">
        <lane id=":B1_1_0" index="0" speed="13.89" length="5.86" shape="208.85,101.60,-92.87 204.69,100.70,-92.87 203.25,100.00,-92.87"/>
    </edge>
    <edge id=":B1_2" function="internal">
        <lane id=":B1_2_0" index="0" speed="3.65" length="2.34" shape="208.85,101.60,-92.87 207.65,100.80,-92.87 207.25,100.00,-92.87"/>
    </edge>
    <edge id=":B1_9" function="internal">
        <lane id=":B1_9_0" index="0" speed="13.89" length="13.07" shape="203.25,100.00,-92.87 200.13,98.49,-92.87 195.76,95.71,-92.87 192.19,93.09,-92.87"/>
    </edge>
    <edge id=":B1_10" function="internal">
        <lane id=":B1_10_0" index="0" speed="3.65" length="2.34" shape="207.25,100.00,-92.87 207.65,99.20,-92.87 208.85,98.40,-92.87"/>
    </edge>
    <edge id=":B1_3" function="internal">
        <lane id=":B1_3_0" index="0" speed="13.89" length="16.91" shape="194.15,90.56,-92.87 197.41,93.07,-92.87 201.11,95.62,-92.87 205.00,97.60,-92.87 208.85,98.40,-92.87"/>
    </edge>
    <edge id=":B1_4" function="internal">
        <lane id=":B1_4_0" index="0" speed="7.56" length="21.32" shape="194.15,90.56,-92.87 199.28,95.39,-92.87 200.36,98.84,-92.87 197.39,100.91,-92.87 190.38,101.60,-92.87"/>
    </edge>
    <edge id=":B1_5" function="internal">
        <lane id=":B1_5_0" index="0" speed="3.65" length="4.67" shape="194.15,90.56,-92.87 194.61,91.92,-92.87 194.44,92.80,-92.87 193.63,93.19,-92.87 192.19,93.09,-92.87"/>
    </edge>
    <edge id=":B1_6" function="internal">
        <lane id=":B1_6_0" index="0" speed="5.46" length="10.25" shape="190.38,98.40,-92.87 193.75,98.07,-92.87 195.18,97.07,-92.87 194.66,95.41,-92.87 192.19,93.09,-92.87"/>
    </edge>
    <edge id=":B1_7" function="internal">
        <lane id=":B1_7_0" index="0" speed="13.89" length="18.47" shape="190.38,98.40,-92.87 208.85,98.40,-92.87"/>
    </edge>
    <edge id=":B1_8" function="internal">
        <lane id=":B1_8_0" index="0" speed="3.65" length="2.34" shape="190.38,98.40,-92.87 191.58,99.20,-92.87 191.98,100.00,-92.87"/>
    </edge>
    <edge id=":B1_11" function="internal">
        <lane id=":B1_11_0" index="0" speed="3.65" length="2.34" shape="191.98,100.00,-92.87 191.58,100.80,-92.87 190.38,101.60,-92.87"/>
    </edge>
    <edge id=":C0_0" function="internal">
        <lane id=":C0_0_0" index="0" speed="6.55" length="9.08" shape="270.94,7.25,84.52 270.57,4.78,84.52 269.50,3.01,84.52 267.75,1.95,84.52 265.30,1.60,84.52"/>
    </edge>
    <edge id=":C0_1" function="internal">
        <lane id=":C0_1_0" index="0" speed="7.98" length="14.23" shape="270.94,7.25,84.52 271.46,3.38,84.52 273.09,0.61,84.52 275.84,-1.05,84.52 279.70,-1.60,84.52"/>
    </edge>
    <edge id=":C0_2" function="internal">
        <lane id=":C0_2_0" index="0" speed="3.65" length="4.67" shape="270.94,7.25,84.52 271.73,6.04,84.52 272.53,5.63,84.52 273.33,6.02,84.52 274.14,7.22,84.52"/>
    </edge>
    <edge id=":C0_3" function="internal">
        <lane id=":C0_3_0" index="0" speed="6.48" length="9.03" shape="279.70,1.60,84.52 277.25,1.95,84.52 275.50,3.00,84.52 274.47,4.76,84.52 274.14,7.22,84.52"/>
    </edge>
    <edge id=":C0_4" function="internal">
        <lane id=":C0_4_0" index="0" speed="13.89" length="14.40" shape="279.70,1.60,84.52 265.30,1.60,84.52"/>
    </edge>
    <edge id=":C0_5" function="internal">
        <lane id=":C0_5_0" index="0" speed="3.65" length="2.34" shape="279.70,1.60,84.52 278.50,0.80,84.52 278.10,0.00,84.52"/>
    </edge>
    <edge id=":C0_9" function="internal">
        <lane id=":C0_9_0" index="0" speed="3.65" length="2.34" shape="278.10,0.00,84.52 278.50,-0.80,84.52 279.70,-1.60,84.52"/>
    </edge>
    <edge id=":C0_6" function="internal">
        <lane id=":C0_6_0" index="0" speed="13.89" length="14.40" shape="265.30,-1.60,84.52 279.70,-1.60,84.52"/>
    </edge>
    <edge id=":C0_7" function="internal">
        <lane id=":C0_7_0" index="0" speed="8.04" length="5.91" shape="265.30,-1.60,84.52 269.14,-1.05,84.52 270.88,0.00,84.52"/>
    </edge>
    <edge id=":C0_8" function="internal">
        <lane id=":C0_8_0" index="0" speed="3.65" length="2.34" shape="265.30,-1.60,84.52 266.50,-0.80,84.52 266.90,0.00,84.52"/>
    </edge>
    <edge id=":C0_10" function="internal">
        <lane id=":C0_10_0" index="0" speed="8.04" length="8.30" shape="270.88,0.00,84.52 271.89,0.60,84.52 273.56,3.36,84.52 274.14,7.22,84.52"/>
    </edge>
    <edge id=":C0_11" function="internal">
        <lane id=":C0_11_0" index="0" speed="3.65" length="2.34" shape="266.90,0.00,84.52 266.50,0.80,84.52 265.30,1.60,84.52"/>
    </edge>
    <edge id=":C1_0" function="internal">
        <lane id=":C1_0_0" index="0" speed="13.89" length="115.46" shape="277.96,101.60,43.70 266.28,101.60,158.57"/>
    </edge>
    <edge id=":C1_1" function="internal">
        <lane id=":C1_1_0" index="0" speed="7.06" length="1.95" shape="277.96,101.60,43.70 277.86,101.45,45.64"/>
    </edge>
    <edge id=":C1_2" function="internal">
        <lane id=":C1_2_0" index="0" speed="3.24" length="1.60" shape="277.96,101.60,43.70 277.96,100.00,43.70"/>
    </edge>
    <edge id=":C1_9" function="internal">
        <lane id=":C1_9_0" index="0" speed="7.06" length="113.42" shape="277.86,101.45,45.64 271.83,92.78,158.57"/>
    </edge>
    <edge id=":C1_10" function="internal">
        <lane id=":C1_10_0" index="0" speed="3.24" length="1.60" shape="277.96,100.00,43.70 277.96,98.40,43.70"/>
    </edge>
    <edge id=":C1_3" function="internal">
        <lane id=":C1_3_0" index="0" speed="5.60" length="115.05" shape="275.03,92.75,158.57 277.96,98.40,43.70"/>
    </edge>
    <edge id=":C1_4" function="internal">
        <lane id=":C1_4_0" index="0" speed="7.98" length="14.23" shape="275.03,92.75,158.57 274.52,96.62,158.57 272.89,99.39,158.57 270.14,101.05,158.57 266.28,101.60,158.57"/>
    </edge>
    <edge id=":C1_5" function="internal">
        <lane id=":C1_5_0" index="0" speed="3.65" length="4.67" shape="275.03,92.75,158.57 274.25,93.96,158.57 273.45,94.37,158.57 272.65,93.98,158.57 271.83,92.78,158.57"/>
    </edge>
    <edge id=":C1_6" function="internal">
        <lane id=":C1_6_0" index="0" speed="6.48" length="9.03" shape="266.28,98.40,158.57 268.73,98.05,158.57 270.47,97.00,158.57 271.51,95.24,158.57 271.83,92.78,158.57"/>
    </edge>
    <edge id=":C1_7" function="internal">
        <lane id=":C1_7_0" index="0" speed="13.89" length="115.46" shape="266.28,98.40,158.57 277.96,98.40,43.70"/>
    </edge>
    <edge id=":C1_8" function="internal">
        <lane id=":C1_8_0" index="0" speed="3.65" length="2.34" shape="266.28,98.40,158.57 267.48,99.20,158.57 267.88,100.00,158.57"/>
    </edge>
    <edge id=":C1_11" function="internal">
        <lane id=":C1_11_0" index="0" speed="3.65" length="2.34" shape="267.88,100.00,158.57 267.48,100.80,158.57 266.28,101.60,158.57"/>
    </edge>
    <edge id=":D0_0" function="internal">
        <lane id=":D0_0_0" index="0" speed="9.36" length="12.21" shape="342.65,1.60,12.62 340.23,2.06,12.62 337.92,3.45,12.62 335.72,5.77,12.62 333.64,9.01,12.62"/>
    </edge>
    <edge id=":D0_1" function="internal">
        <lane id=":D0_1_0" index="0" speed="13.89" length="15.30" shape="342.65,1.60,12.62 327.35,1.60,12.62"/>
    </edge>
    <edge id=":D0_2" function="internal">
        <lane id=":D0_2_0" index="0" speed="3.65" length="2.34" shape="342.65,1.60,12.62 341.45,0.80,12.62 341.05,0.00,12.62"/>
    </edge>
    <edge id=":D0_9" function="internal">
        <lane id=":D0_9_0" index="0" speed="3.65" length="2.34" shape="341.05,0.00,12.62 341.45,-0.80,12.62 342.65,-1.60,12.62"/>
    </edge>
    <edge id=":D0_3" function="internal">
        <lane id=":D0_3_0" index="0" speed="13.89" length="15.30" shape="327.35,-1.60,12.62 342.65,-1.60,12.62"/>
    </edge>
    <edge id=":D0_4" function="internal">
        <lane id=":D0_4_0" index="0" speed="7.41" length="6.55" shape="327.35,-1.60,12.62 332.28,-0.94,12.62 333.55,0.00,12.62"/>
    </edge>
    <edge id=":D0_5" function="internal">
        <lane id=":D0_5_0" index="0" speed="3.65" length="2.34" shape="327.35,-1.60,12.62 328.55,-0.80,12.62 328.95,0.00,12.62"/>
    </edge>
    <edge id=":D0_10" function="internal">
        <lane id=":D0_10_0" index="0" speed="7.41" length="10.10" shape="333.55,0.00,12.62 334.97,1.05,12.62 335.43,4.37,12.62 333.64,9.01,12.62"/>
    </edge>
    <edge id=":D0_11" function="internal">
        <lane id=":D0_11_0" index="0" speed="3.65" length="2.34" shape="328.95,0.00,12.62 328.55,0.80,12.62 327.35,1.60,12.62"/>
    </edge>
    <edge id=":D0_6" function="internal">
        <lane id=":D0_6_0" index="0" speed="5.69" length="9.22" shape="330.83,7.48,12.62 331.82,4.91,12.62 331.57,3.07,12.62 330.08,1.97,12.62 327.35,1.60,12.62"/>
    </edge>
    <edge id=":D0_7" function="internal">
        <lane id=":D0_7_0" index="0" speed="10.53" length="15.62" shape="330.83,7.48,12.62 333.44,3.51,12.62 336.27,0.67,12.62 339.34,-1.03,12.62 342.65,-1.60,12.62"/>
    </edge>
    <edge id=":D0_8" function="internal">
        <lane id=":D0_8_0" index="0" speed="3.65" length="4.67" shape="330.83,7.48,12.62 332.11,6.81,12.62 333.00,6.84,12.62 333.51,7.58,12.62 333.64,9.01,12.62"/>
    </edge>
    <edge id=":D1_0" function="internal">
        <lane id=":D1_0_0" index="0" speed="13.89" length="115.65" shape="291.35,101.60,-71.17 277.96,101.60,43.70"/>
    </edge>
    <edge id=":D1_1" function="internal">
        <lane id=":D1_1_0" index="0" speed="7.41" length="6.55" shape="291.35,101.60,-71.17 286.42,100.94,-71.17 285.16,100.00,-71.17"/>
    </edge>
    <edge id=":D1_2" function="internal">
        <lane id=":D1_2_0" index="0" speed="3.65" length="2.34" shape="291.35,101.60,-71.17 290.15,100.80,-71.17 289.75,100.00,-71.17"/>
    </edge>
    <edge id=":D1_9" function="internal">
        <lane id=":D1_9_0" index="0" speed="7.41" length="10.10" shape="285.16,100.00,-71.17 283.73,98.95,-71.17 283.28,95.63,-71.17 285.07,90.99,-71.17"/>
    </edge>
    <edge id=":D1_10" function="internal">
        <lane id=":D1_10_0" index="0" speed="3.65" length="2.34" shape="289.75,100.00,-71.17 290.15,99.20,-71.17 291.35,98.40,-71.17"/>
    </edge>
    <edge id=":D1_3" function="internal">
        <lane id=":D1_3_0" index="0" speed="5.69" length="9.22" shape="287.87,92.52,-71.17 286.88,95.09,-71.17 287.13,96.93,-71.17 288.62,98.03,-71.17 291.35,98.40,-71.17"/>
    </edge>
    <edge id=":D1_4" function="internal">
        <lane id=":D1_4_0" index="0" speed="9.79" length="115.66" shape="287.87,92.52,-71.17 277.96,101.60,43.70"/>
    </edge>
    <edge id=":D1_5" function="internal">
        <lane id=":D1_5_0" index="0" speed="3.65" length="4.67" shape="287.87,92.52,-71.17 286.60,93.19,-71.17 285.70,93.16,-71.17 285.19,92.42,-71.17 285.07,90.99,-71.17"/>
    </edge>
    <edge id=":D1_6" function="internal">
        <lane id=":D1_6_0" index="0" speed="8.62" length="115.33" shape="277.96,98.40,43.70 285.07,90.99,-71.17"/>
    </edge>
    <edge id=":D1_7" function="internal">
        <lane id=":D1_7_0" index="0" speed="13.89" length="115.65" shape="277.96,98.40,43.70 291.35,98.40,-71.17"/>
    </edge>
    <edge id=":D1_8" function="internal">
        <lane id=":D1_8_0" index="0" speed="3.24" length="1.60" shape="277.96,98.40,43.70 277.96,100.00,43.70"/>
    </edge>
    <edge id=":D1_11" function="internal">
        <lane id=":D1_11_0" index="0" speed="3.24" length="1.60" shape="277.96,100.00,43.70 277.96,101.60,43.70"/>
    </edge>
    <edge id=":E0_0" function="internal">
        <lane id=":E0_0_0" index="0" speed="7.22" length="9.92" shape="499.75,1.60,57.33 497.34,2.00,57.33 495.47,3.18,57.33 494.14,5.16,57.33 493.34,7.93,57.33"/>
    </edge>
    <edge id=":E0_1" function="internal">
        <lane id=":E0_1_0" index="0" speed="13.89" length="14.49" shape="499.75,1.60,57.33 485.26,1.60,57.33"/>
    </edge>
    <edge id=":E0_2" function="internal">
        <lane id=":E0_2_0" index="0" speed="3.65" length="2.34" shape="499.75,1.60,57.33 498.55,0.80,57.33 498.15,0.00,57.33"/>
    </edge>
    <edge id=":E0_9" function="internal">
        <lane id=":E0_9_0" index="0" speed="3.65" length="2.34" shape="498.15,0.00,57.33 498.55,-0.80,57.33 499.75,-1.60,57.33"/>
    </edge>
    <edge id=":E0_3" function="internal">
        <lane id=":E0_3_0" index="0" speed="13.89" length="14.49" shape="485.26,-1.60,57.33 499.75,-1.60,57.33"/>
    </edge>
    <edge id=":E0_4" function="internal">
        <lane id=":E0_4_0" index="0" speed="7.74" length="6.00" shape="485.26,-1.60,57.33 489.39,-1.00,57.33 490.92,0.00,57.33"/>
    </edge>
    <edge id=":E0_5" function="internal">
        <lane id=":E0_5_0" index="0" speed="3.65" length="2.34" shape="485.26,-1.60,57.33 486.46,-0.80,57.33 486.86,0.00,57.33"/>
    </edge>
    <edge id=":E0_10" function="internal">
        <lane id=":E0_10_0" index="0" speed="7.74" length="8.85" shape="490.92,0.00,57.33 492.12,0.78,57.33 493.43,3.76,57.33 493.34,7.93,57.33"/>
    </edge>
    <edge id=":E0_11" function="internal">
        <lane id=":E0_11_0" index="0" speed="3.65" length="2.34" shape="486.86,0.00,57.33 486.46,0.80,57.33 485.26,1.60,57.33"/>
    </edge>
    <edge id=":E0_6" function="internal">
        <lane id=":E0_6_0" index="0" speed="6.18" length="9.05" shape="490.19,7.41,57.33 490.24,4.87,57.33 489.44,3.05,57.33 487.78,1.96,57.33 485.26,1.60,57.33"/>
    </edge>
    <edge id=":E0_7" function="internal">
        <lane id=":E0_7_0" index="0" speed="8.60" length="14.49" shape="490.19,7.41,57.33 491.35,3.47,57.33 493.33,0.65,57.33 496.13,-1.04,57.33 499.75,-1.60,57.33"/>
    </edge>
    <edge id=":E0_8" function="internal">
        <lane id=":E0_8_0" index="0" speed="3.65" length="4.67" shape="490.19,7.41,57.33 491.17,6.36,57.33 492.03,6.09,57.33 492.75,6.62,57.33 493.34,7.93,57.33"/>
    </edge>
    <edge id=":E1_0" function="internal">
        <lane id=":E1_0_0" index="0" speed="13.89" length="14.49" shape="484.22,101.60,66.94 469.73,101.60,66.94"/>
    </edge>
    <edge id=":E1_1" function="internal">
        <lane id=":E1_1_0" index="0" speed="7.74" length="6.00" shape="484.22,101.60,66.94 480.09,101.00,66.94 478.56,100.00,66.94"/>
    </edge>
    <edge id=":E1_2" function="internal">
        <lane id=":E1_2_0" index="0" speed="3.65" length="2.34" shape="484.22,101.60,66.94 483.02,100.80,66.94 482.62,100.00,66.94"/>
    </edge>
    <edge id=":E1_9" function="internal">
        <lane id=":E1_9_0" index="0" speed="7.74" length="8.85" shape="478.56,100.00,66.94 477.37,99.22,66.94 476.05,96.24,66.94 476.14,92.07,66.94"/>
    </edge>
    <edge id=":E1_10" function="internal">
        <lane id=":E1_10_0" index="0" speed="3.65" length="2.34" shape="482.62,100.00,66.94 483.02,99.20,66.94 484.22,98.40,66.94"/>
    </edge>
    <edge id=":E1_3" function="internal">
        <lane id=":E1_3_0" index="0" speed="6.18" length="9.05" shape="479.30,92.59,66.94 479.24,95.13,66.94 480.05,96.95,66.94 481.71,98.04,66.94 484.22,98.40,66.94"/>
    </edge>
    <edge id=":E1_4" function="internal">
        <lane id=":E1_4_0" index="0" speed="8.60" length="14.49" shape="479.30,92.59,66.94 478.14,96.53,66.94 476.16,99.35,66.94 473.36,101.04,66.94 469.73,101.60,66.94"/>
    </edge>
    <edge id=":E1_5" function="internal">
        <lane id=":E1_5_0" index="0" speed="3.65" length="4.67" shape="479.30,92.59,66.94 478.31,93.64,66.94 477.46,93.91,66.94 476.73,93.38,66.94 476.14,92.07,66.94"/>
    </edge>
    <edge id=":E1_6" function="internal">
        <lane id=":E1_6_0" index="0" speed="7.22" length="9.92" shape="469.73,98.40,66.94 472.14,98.00,66.94 474.01,96.82,66.94 475.35,94.84,66.94 476.14,92.07,66.94"/>
    </edge>
    <edge id=":E1_7" function="internal">
        <lane id=":E1_7_0" index="0" speed="13.89" length="14.49" shape="469.73,98.40,66.94 484.22,98.40,66.94"/>
    </edge>
    <edge id=":E1_8" function="internal">
        <lane id=":E1_8_0" index="0" speed="3.65" length="2.34" shape="469.73,98.40,66.94 470.93,99.20,66.94 471.33,100.00,66.94"/>
    </edge>
    <edge id=":E1_11" function="internal">
        <lane id=":E1_11_0" index="0" speed="3.65" length="2.34" shape="471.33,100.00,66.94 470.93,100.80,66.94 469.73,101.60,66.94"/>
    </edge>
    <edge id=":F0_0" function="internal">
        <lane id=":F0_0_0" index="0" speed="7.52" length="10.28" shape="537.14,1.60,38.73 534.73,2.01,38.73 532.80,3.24,38.73 531.35,5.29,38.73 530.36,8.17,38.73"/>
    </edge>
    <edge id=":F0_1" function="internal">
        <lane id=":F0_1_0" index="0" speed="13.89" length="14.56" shape="537.14,1.60,38.73 522.57,1.60,38.73"/>
    </edge>
    <edge id=":F0_2" function="internal">
        <lane id=":F0_2_0" index="0" speed="3.65" length="2.34" shape="537.14,1.60,38.73 535.94,0.80,38.73 535.54,0.00,38.73"/>
    </edge>
    <edge id=":F0_9" function="internal">
        <lane id=":F0_9_0" index="0" speed="3.65" length="2.34" shape="535.54,0.00,38.73 535.94,-0.80,38.73 537.14,-1.60,38.73"/>
    </edge>
    <edge id=":F0_3" function="internal">
        <lane id=":F0_3_0" index="0" speed="13.89" length="14.56" shape="522.57,-1.60,38.73 537.14,-1.60,38.73"/>
    </edge>
    <edge id=":F0_4" function="internal">
        <lane id=":F0_4_0" index="0" speed="7.66" length="6.06" shape="522.57,-1.60,38.73 526.82,-0.99,38.73 528.28,0.00,38.73"/>
    </edge>
    <edge id=":F0_5" function="internal">
        <lane id=":F0_5_0" index="0" speed="3.65" length="2.34" shape="522.57,-1.60,38.73 523.77,-0.80,38.73 524.17,0.00,38.73"/>
    </edge>
    <edge id=":F0_10" function="internal">
        <lane id=":F0_10_0" index="0" speed="7.66" length="9.07" shape="528.28,0.00,38.73 529.53,0.84,38.73 530.71,3.89,38.73 530.36,8.17,38.73"/>
    </edge>
    <edge id=":F0_11" function="internal">
        <lane id=":F0_11_0" index="0" speed="3.65" length="2.34" shape="524.17,0.00,38.73 523.77,0.80,38.73 522.57,1.60,38.73"/>
    </edge>
    <edge id=":F0_6" function="internal">
        <lane id=":F0_6_0" index="0" speed="6.08" length="9.07" shape="527.24,7.46,38.73 527.45,4.89,38.73 526.74,3.06,38.73 525.12,1.97,38.73 522.57,1.60,38.73"/>
    </edge>
    <edge id=":F0_7" function="internal">
        <lane id=":F0_7_0" index="0" speed="8.87" length="14.63" shape="527.24,7.46,38.73 528.63,3.49,38.73 530.75,0.66,38.73 533.58,-1.03,38.73 537.14,-1.60,38.73"/>
    </edge>
    <edge id=":F0_8" function="internal">
        <lane id=":F0_8_0" index="0" speed="3.65" length="4.67" shape="527.24,7.46,38.73 528.29,6.46,38.73 529.16,6.25,38.73 529.85,6.82,38.73 530.36,8.17,38.73"/>
    </edge>
    <edge id=":F1_0" function="internal">
        <lane id=":F1_0_0" index="0" speed="13.89" length="14.56" shape="515.77,101.60,-117.08 501.21,101.60,-117.08"/>
    </edge>
    <edge id=":F1_1" function="internal">
        <lane id=":F1_1_0" index="0" speed="7.66" length="6.06" shape="515.77,101.60,-117.08 511.53,100.99,-117.08 510.06,100.00,-117.08"/>
    </edge>
    <edge id=":F1_2" function="internal">
        <lane id=":F1_2_0" index="0" speed="3.65" length="2.34" shape="515.77,101.60,-117.08 514.57,100.80,-117.08 514.17,100.00,-117.08"/>
    </edge>
    <edge id=":F1_9" function="internal">
        <lane id=":F1_9_0" index="0" speed="7.66" length="9.07" shape="510.06,100.00,-117.08 508.82,99.16,-117.08 507.63,96.11,-117.08 507.98,91.83,-117.08"/>
    </edge>
    <edge id=":F1_10" function="internal">
        <lane id=":F1_10_0" index="0" speed="3.65" length="2.34" shape="514.17,100.00,-117.08 514.57,99.20,-117.08 515.77,98.40,-117.08"/>
    </edge>
    <edge id=":F1_3" function="internal">
        <lane id=":F1_3_0" index="0" speed="6.08" length="9.07" shape="511.10,92.54,-117.08 510.89,95.11,-117.08 511.60,96.94,-117.08 513.23,98.03,-117.08 515.77,98.40,-117.08"/>
    </edge>
    <edge id=":F1_4" function="internal">
        <lane id=":F1_4_0" index="0" speed="8.87" length="14.63" shape="511.10,92.54,-117.08 509.71,96.51,-117.08 507.60,99.34,-117.08 504.76,101.03,-117.08 501.21,101.60,-117.08"/>
    </edge>
    <edge id=":F1_5" function="internal">
        <lane id=":F1_5_0" index="0" speed="3.65" length="4.67" shape="511.10,92.54,-117.08 510.06,93.54,-117.08 509.19,93.75,-117.08 508.50,93.18,-117.08 507.98,91.83,-117.08"/>
    </edge>
    <edge id=":F1_6" function="internal">
        <lane id=":F1_6_0" index="0" speed="7.52" length="10.28" shape="501.21,98.40,-117.08 503.61,97.99,-117.08 505.54,96.76,-117.08 507.00,94.71,-117.08 507.98,91.83,-117.08"/>
    </edge>
    <edge id=":F1_7" function="internal">
        <lane id=":F1_7_0" index="0" speed="13.89" length="14.56" shape="501.21,98.40,-117.08 515.77,98.40,-117.08"/>
    </edge>
    <edge id=":F1_8" function="internal">
        <lane id=":F1_8_0" index="0" speed="3.65" length="2.34" shape="501.21,98.40,-117.08 502.41,99.20,-117.08 502.81,100.00,-117.08"/>
    </edge>
    <edge id=":F1_11" function="internal">
        <lane id=":F1_11_0" index="0" speed="3.65" length="2.34" shape="502.81,100.00,-117.08 502.41,100.80,-117.08 501.21,101.60,-117.08"/>
    </edge>
    <edge id=":G0_0" function="internal">
        <lane id=":G0_0_0" index="0" speed="8.55" length="11.41" shape="671.66,1.60,22.64 669.25,2.05,22.59 667.11,3.39,22.55 665.23,5.62,22.50 663.61,8.74,22.44"/>
    </edge>
    <edge id=":G0_1" function="internal">
        <lane id=":G0_1_0" index="0" speed="13.89" length="14.94" shape="671.66,1.60,22.64 656.72,1.60,22.44"/>
    </edge>
    <edge id=":G0_2" function="internal">
        <lane id=":G0_2_0" index="0" speed="3.65" length="2.34" shape="671.66,1.60,22.64 670.46,0.80,22.63 670.06,0.00,22.63"/>
    </edge>
    <edge id=":G0_9" function="internal">
        <lane id=":G0_9_0" index="0" speed="3.65" length="2.34" shape="670.06,0.00,22.63 670.46,-0.80,22.62 671.66,-1.60,22.62"/>
    </edge>
    <edge id=":G0_3" function="internal">
        <lane id=":G0_3_0" index="0" speed="13.89" length="14.94" shape="656.72,-1.60,22.44 671.66,-1.60,22.62"/>
    </edge>
    <edge id=":G0_4" function="internal">
        <lane id=":G0_4_0" index="0" speed="7.48" length="6.31" shape="656.72,-1.60,22.44 661.35,-0.95,22.44 662.68,-0.00,22.44"/>
    </edge>
    <edge id=":G0_5" function="internal">
        <lane id=":G0_5_0" index="0" speed="3.65" length="2.34" shape="656.72,-1.60,22.44 657.92,-0.80,22.44 658.32,0.00,22.44"/>
    </edge>
    <edge id=":G0_10" function="internal">
        <lane id=":G0_10_0" index="0" speed="7.48" length="9.68" shape="662.68,-0.00,22.44 664.05,0.99,22.44 664.80,4.22,22.44 663.61,8.74,22.44"/>
    </edge>
    <edge id=":G0_11" function="internal">
        <lane id=":G0_11_0" index="0" speed="3.65" length="2.34" shape="658.32,0.00,22.44 657.92,0.80,22.44 656.72,1.60,22.44"/>
    </edge>
    <edge id=":G0_6" function="internal">
        <lane id=":G0_6_0" index="0" speed="5.82" length="9.14" shape="660.66,7.51,22.44 661.34,4.92,22.44 660.91,3.08,22.44 659.37,1.97,22.44 656.72,1.60,22.44"/>
    </edge>
    <edge id=":G0_7" function="internal">
        <lane id=":G0_7_0" index="0" speed="9.79" length="15.18" shape="660.66,7.51,22.44 662.77,3.52,22.49 665.31,0.68,22.54 668.27,-1.03,22.58 671.66,-1.60,22.62"/>
    </edge>
    <edge id=":G0_8" function="internal">
        <lane id=":G0_8_0" index="0" speed="3.65" length="4.67" shape="660.66,7.51,22.44 661.86,6.71,22.44 662.75,6.65,22.44 663.33,7.33,22.44 663.61,8.74,22.44"/>
    </edge>
    <edge id=":G1_0" function="internal">
        <lane id=":G1_0_0" index="0" speed="13.89" length="14.94" shape="632.57,101.60,-42.39 617.63,101.60,-42.39"/>
    </edge>
    <edge id=":G1_1" function="internal">
        <lane id=":G1_1_0" index="0" speed="7.48" length="6.31" shape="632.57,101.60,-42.39 627.93,100.95,-42.39 626.61,100.00,-42.39"/>
    </edge>
    <edge id=":G1_2" function="internal">
        <lane id=":G1_2_0" index="0" speed="3.65" length="2.34" shape="632.57,101.60,-42.39 631.37,100.80,-42.39 630.97,100.00,-42.39"/>
    </edge>
    <edge id=":G1_9" function="internal">
        <lane id=":G1_9_0" index="0" speed="7.48" length="9.68" shape="626.61,100.00,-42.39 625.24,99.01,-42.39 624.49,95.78,-42.39 625.68,91.26,-42.39"/>
    </edge>
    <edge id=":G1_10" function="internal">
        <lane id=":G1_10_0" index="0" speed="3.65" length="2.34" shape="630.97,100.00,-42.39 631.37,99.20,-42.39 632.57,98.40,-42.39"/>
    </edge>
    <edge id=":G1_3" function="internal">
        <lane id=":G1_3_0" index="0" speed="5.82" length="9.14" shape="628.63,92.49,-42.39 627.95,95.08,-42.39 628.38,96.92,-42.39 629.92,98.03,-42.39 632.57,98.40,-42.39"/>
    </edge>
    <edge id=":G1_4" function="internal">
        <lane id=":G1_4_0" index="0" speed="9.79" length="15.18" shape="628.63,92.49,-42.39 626.52,96.48,-42.39 623.98,99.32,-42.39 621.02,101.03,-42.39 617.63,101.60,-42.39"/>
    </edge>
    <edge id=":G1_5" function="internal">
        <lane id=":G1_5_0" index="0" speed="3.65" length="4.67" shape="628.63,92.49,-42.39 627.43,93.29,-42.39 626.54,93.35,-42.39 625.95,92.67,-42.39 625.68,91.26,-42.39"/>
    </edge>
    <edge id=":G1_6" function="internal">
        <lane id=":G1_6_0" index="0" speed="8.55" length="11.41" shape="617.63,98.40,-42.39 620.03,97.95,-42.39 622.17,96.61,-42.39 624.06,94.38,-42.39 625.68,91.26,-42.39"/>
    </edge>
    <edge id=":G1_7" function="internal">
        <lane id=":G1_7_0" index="0" speed="13.89" length="14.94" shape="617.63,98.40,-42.39 632.57,98.40,-42.39"/>
    </edge>
    <edge id=":G1_8" function="internal">
        <lane id=":G1_8_0" index="0" speed="3.65" length="2.34" shape="617.63,98.40,-42.39 618.83,99.20,-42.39 619.23,100.00,-42.39"/>
    </edge>
    <edge id=":G1_11" function="internal">