<?xml version="1.0" encoding="UTF-8"?>

<!-- generated on 07/24/20 11:51:55 by Eclipse SUMO netgenerate Version 1.5.0
<configuration xmlns:xsi="http://www.w3.org/2001/XMLSchema-instance" xsi:noNamespaceSchemaLocation="http://sumo.dlr.de/xsd/netgenerateConfiguration.xsd">

    <grid_network>
        <grid value="true"/>
        <grid.x-number value="20"/>
        <grid.y-number value="2"/>
    </grid_network>

    <output>
        <output-file value="3.net.xml"/>
    </output>

    <processing>
        <perturb-x value="10"/>
        <perturb-z value="30"/>
    </processing>

    <random_number>
        <seed value="6106279"/>
    </random_number>

</configuration>
-->

<net version="1.3" junctionCornerDetail="5" limitTurnSpeed="5.50" xmlns:xsi="http://www.w3.org/2001/XMLSchema-instance" xsi:noNamespaceSchemaLocation="http://sumo.dlr.de/xsd/net_file.xsd">

    <location netOffset="6.95,0.00" convBoundary="0.00,0.00,1915.72,100.00" origBoundary="-6.95,0.00,1908.76,100.00" projParameter="!"/>

    <edge id=":A0_0" function="internal">
        <lane id=":A0_0_0" index="0" speed="6.07" length="8.51" shape="-1.48,3.37,-43.63 -1.25,1.19,-42.78 -0.37,-0.36,-42.09 1.15,-1.29,-41.40 3.31,-1.60,-40.55"/>
    </edge>
    <edge id=":A0_1" function="internal">
        <lane id=":A0_1_0" index="0" speed="3.90" length="4.22" shape="3.31,1.60,-40.33 2.59,1.70,-41.24 2.09,2.01,-41.98 1.79,2.53,-42.72 1.72,3.26,-43.63"/>
    </edge>
    <edge id=":A1_0" function="internal">
        <lane id=":A1_0_0" index="0" speed="6.08" length="8.17" shape="6.59,101.60,-42.99 4.56,101.31,-43.84 3.08,100.44,-44.55 2.16,98.99,-45.26 1.80,96.97,-46.11"/>
    </edge>
    <edge id=":A1_1" function="internal">
        <lane id=":A1_1_0" index="0" speed="3.91" length="3.91" shape="5.00,96.86,-46.11 5.12,97.53,-45.29 5.42,98.01,-44.61 5.92,98.30,-43.93 6.59,98.40,-43.12"/>
    </edge>
    <edge id=":B0_0" function="internal">
        <lane id=":B0_0_0" index="0" speed="6.76" length="9.36" shape="116.17,1.60,54.68 113.74,1.97,54.67 111.95,3.07,54.67 110.80,4.92,54.66 110.29,7.50,54.66"/>
    </edge>
    <edge id=":B0_1" function="internal">
        <lane id=":B0_1_0" index="0" speed="13.89" length="14.41" shape="116.17,1.60,54.68 101.75,1.60,54.82"/>
    </edge>
    <edge id=":B0_2" function="internal">
        <lane id=":B0_2_0" index="0" speed="3.65" length="2.34" shape="116.17,1.60,54.68 114.97,0.80,54.68 114.57,0.00,54.68"/>
    </edge>
    <edge id=":B0_9" function="internal">
        <lane id=":B0_9_0" index="0" speed="3.65" length="2.34" shape="114.57,0.00,54.68 114.97,-0.80,54.68 116.17,-1.60,54.68"/>
    </edge>
    <edge id=":B0_3" function="internal">
        <lane id=":B0_3_0" index="0" speed="13.89" length="14.41" shape="101.75,-1.60,54.82 116.17,-1.60,54.68"/>
    </edge>
    <edge id=":B0_4" function="internal">
        <lane id=":B0_4_0" index="0" speed="7.89" length="5.94" shape="101.75,-1.60,54.82 105.71,-1.03,54.77 107.36,-0.00,54.75"/>
    </edge>
    <edge id=":B0_5" function="internal">
        <lane id=":B0_5_0" index="0" speed="3.65" length="2.34" shape="101.75,-1.60,54.82 102.95,-0.80,54.82 103.35,0.00,54.82"/>
    </edge>
    <edge id=":B0_10" function="internal">
        <lane id=":B0_10_0" index="0" speed="7.89" length="8.50" shape="107.36,-0.00,54.75 108.45,0.67,54.74 109.97,3.52,54.70 110.29,7.50,54.66"/>
    </edge>
    <edge id=":B0_11" function="internal">
        <lane id=":B0_11_0" index="0" speed="3.65" length="2.34" shape="103.35,0.00,54.82 102.95,0.80,54.82 101.75,1.60,54.82"/>
    </edge>
    <edge id=":B0_6" function="internal">
        <lane id=":B0_6_0" index="0" speed="6.37" length="9.04" shape="107.10,7.29,54.66 106.90,4.80,54.70 105.94,3.02,54.74 104.23,1.96,54.77 101.75,1.60,54.82"/>
    </edge>
    <edge id=":B0_7" function="internal">
        <lane id=":B0_7_0" index="0" speed="8.22" length="14.29" shape="107.10,7.29,54.66 107.88,3.40,54.66 109.65,0.62,54.67 112.41,-1.04,54.67 116.17,-1.60,54.68"/>
    </edge>
    <edge id=":B0_8" function="internal">
        <lane id=":B0_8_0" index="0" speed="3.65" length="4.67" shape="107.10,7.29,54.66 107.97,6.15,54.66 108.80,5.80,54.66 109.57,6.25,54.66 110.29,7.50,54.66"/>
    </edge>
    <edge id=":B1_0" function="internal">
        <lane id=":B1_0_0" index="0" speed="13.89" length="14.41" shape="110.23,101.60,52.64 95.81,101.60,52.64"/>
    </edge>
    <edge id=":B1_1" function="internal">
        <lane id=":B1_1_0" index="0" speed="7.89" length="5.94" shape="110.23,101.60,52.64 106.27,101.03,52.68 104.62,100.00,52.70"/>
    </edge>
    <edge id=":B1_2" function="internal">
        <lane id=":B1_2_0" index="0" speed="3.65" length="2.34" shape="110.23,101.60,52.64 109.03,100.80,52.64 108.63,100.00,52.64"/>
    </edge>
    <edge id=":B1_9" function="internal">
        <lane id=":B1_9_0" index="0" speed="7.89" length="8.50" shape="104.62,100.00,52.70 103.53,99.33,52.72 102.01,96.48,52.76 101.69,92.50,52.80"/>
    </edge>
    <edge id=":B1_10" function="internal">
        <lane id=":B1_10_0" index="0" speed="3.65" length="2.34" shape="108.63,100.00,52.64 109.03,99.20,52.64 110.23,98.40,52.64"/>
    </edge>
    <edge id=":B1_3" function="internal">
        <lane id=":B1_3_0" index="0" speed="6.37" length="9.04" shape="104.88,92.71,52.80 105.08,95.20,52.76 106.04,96.98,52.72 107.75,98.04,52.68 110.23,98.40,52.64"/>
    </edge>
    <edge id=":B1_4" function="internal">
        <lane id=":B1_4_0" index="0" speed="8.22" length="14.29" shape="104.88,92.71,52.80 104.10,96.60,52.75 102.33,99.38,52.72 99.57,101.04,52.68 95.81,101.60,52.64"/>
    </edge>
    <edge id=":B1_5" function="internal">
        <lane id=":B1_5_0" index="0" speed="3.65" length="4.67" shape="104.88,92.71,52.80 104.01,93.85,52.80 103.18,94.20,52.80 102.41,93.75,52.80 101.69,92.50,52.80"/>
    </edge>
    <edge id=":B1_6" function="internal">
        <lane id=":B1_6_0" index="0" speed="6.76" length="9.36" shape="95.81,98.40,52.64 98.24,98.03,52.68 100.03,96.93,52.72 101.18,95.08,52.75 101.69,92.50,52.80"/>
    </edge>
    <edge id=":B1_7" function="internal">
        <lane id=":B1_7_0" index="0" speed="13.89" length="14.41" shape="95.81,98.40,52.64 110.23,98.40,52.64"/>
    </edge>
    <edge id=":B1_8" function="internal">
        <lane id=":B1_8_0" index="0" speed="3.65" length="2.34" shape="95.81,98.40,52.64 97.01,99.20,52.64 97.41,100.00,52.64"/>
    </edge>
    <edge id=":B1_11" function="internal">
        <lane id=":B1_11_0" index="0" speed="3.65" length="2.34" shape="97.41,100.00,52.64 97.01,100.80,52.64 95.81,101.60,52.64"/>
    </edge>
    <edge id=":C0_0" function="internal">
        <lane id=":C0_0_0" index="0" speed="6.91" length="9.55" shape="224.29,1.60,52.73 221.87,1.98,52.73 220.05,3.11,52.73 218.85,5.00,52.73 218.24,7.65,52.73"/>
    </edge>
    <edge id=":C0_1" function="internal">
        <lane id=":C0_1_0" index="0" speed="13.89" length="14.43" shape="224.29,1.60,52.73 209.86,1.60,52.88"/>
    </edge>
    <edge id=":C0_2" function="internal">
        <lane id=":C0_2_0" index="0" speed="3.65" length="2.34" shape="224.29,1.60,52.73 223.09,0.80,52.73 222.69,0.00,52.73"/>
    </edge>
    <edge id=":C0_9" function="internal">
        <lane id=":C0_9_0" index="0" speed="3.65" length="2.34" shape="222.69,0.00,52.73 223.09,-0.80,52.73 224.29,-1.60,52.73"/>
    </edge>
    <edge id=":C0_3" function="internal">
        <lane id=":C0_3_0" index="0" speed="13.89" length="14.43" shape="209.86,-1.60,52.88 224.29,-1.60,52.73"/>
    </edge>
    <edge id=":C0_4" function="internal">
        <lane id=":C0_4_0" index="0" speed="7.84" length="5.96" shape="209.86,-1.60,52.88 213.87,-1.02,52.84 215.48,-0.00,52.82"/>
    </edge>
    <edge id=":C0_5" function="internal">
        <lane id=":C0_5_0" index="0" speed="3.65" length="2.34" shape="209.86,-1.60,52.88 211.06,-0.80,52.88 211.46,0.00,52.88"/>
    </edge>
    <edge id=":C0_10" function="internal">
        <lane id=":C0_10_0" index="0" speed="7.84" length="8.62" shape="215.48,-0.00,52.82 216.60,0.71,52.81 218.06,3.60,52.77 218.24,7.65,52.73"/>
    </edge>
    <edge id=":C0_11" function="internal">
        <lane id=":C0_11_0" index="0" speed="3.65" length="2.34" shape="211.46,0.00,52.88 211.06,0.80,52.88 209.86,1.60,52.88"/>
    </edge>
    <edge id=":C0_6" function="internal">
        <lane id=":C0_6_0" index="0" speed="6.30" length="9.04" shape="215.06,7.34,52.73 214.95,4.83,52.77 214.04,3.03,52.81 212.35,1.96,52.84 209.86,1.60,52.88"/>
    </edge>
    <edge id=":C0_7" function="internal">
        <lane id=":C0_7_0" index="0" speed="8.34" length="14.35" shape="215.06,7.34,52.73 215.97,3.43,52.73 217.81,0.63,52.73 220.58,-1.04,52.73 224.29,-1.60,52.73"/>
    </edge>
    <edge id=":C0_8" function="internal">
        <lane id=":C0_8_0" index="0" speed="3.65" length="4.67" shape="215.06,7.34,52.73 215.97,6.22,52.73 216.81,5.90,52.73 217.57,6.38,52.73 218.24,7.65,52.73"/>
    </edge>
    <edge id=":C1_0" function="internal">
        <lane id=":C1_0_0" index="0" speed="13.89" length="14.43" shape="215.09,101.60,-43.14 200.66,101.60,-43.14"/>
    </edge>
    <edge id=":C1_1" function="internal">
        <lane id=":C1_1_0" index="0" speed="7.84" length="5.96" shape="215.09,101.60,-43.14 211.08,101.02,-43.14 209.47,100.00,-43.14"/>
    </edge>
    <edge id=":C1_2" function="internal">
        <lane id=":C1_2_0" index="0" speed="3.65" length="2.34" shape="215.09,101.60,-43.14 213.89,100.80,-43.14 213.49,100.00,-43.14"/>
    </edge>
    <edge id=":C1_9" function="internal">
        <lane id=":C1_9_0" index="0" speed="7.84" length="8.62" shape="209.47,100.00,-43.14 208.35,99.29,-43.14 206.89,96.40,-43.14 206.71,92.35,-43.14"/>
    </edge>
    <edge id=":C1_10" function="internal">
        <lane id=":C1_10_0" index="0" speed="3.65" length="2.34" shape="213.49,100.00,-43.14 213.89,99.20,-43.14 215.09,98.40,-43.14"/>
    </edge>
    <edge id=":C1_3" function="internal">
        <lane id=":C1_3_0" index="0" speed="6.30" length="9.04" shape="209.89,92.66,-43.14 210.01,95.17,-43.14 210.91,96.97,-43.14 212.61,98.04,-43.14 215.09,98.40,-43.14"/>
    </edge>
    <edge id=":C1_4" function="internal">
        <lane id=":C1_4_0" index="0" speed="8.34" length="14.35" shape="209.89,92.66,-43.14 208.99,96.57,-43.14 207.15,99.37,-43.14 204.37,101.04,-43.14 200.66,101.60,-43.14"/>
    </edge>
    <edge id=":C1_5" function="internal">
        <lane id=":C1_5_0" index="0" speed="3.65" length="4.67" shape="209.89,92.66,-43.14 208.98,93.78,-43.14 208.14,94.10,-43.14 207.39,93.62,-43.14 206.71,92.35,-43.14"/>
    </edge>
    <edge id=":C1_6" function="internal">
        <lane id=":C1_6_0" index="0" speed="6.91" length="9.55" shape="200.66,98.40,-43.14 203.09,98.02,-43.14 204.90,96.89,-43.14 206.11,95.00,-43.14 206.71,92.35,-43.14"/>
    </edge>
    <edge id=":C1_7" function="internal">
        <lane id=":C1_7_0" index="0" speed="13.89" length="14.43" shape="200.66,98.40,-43.14 215.09,98.40,-43.14"/>
    </edge>
    <edge id=":C1_8" function="internal">
        <lane id=":C1_8_0" index="0" speed="3.65" length="2.34" shape="200.66,98.40,-43.14 201.86,99.20,-43.14 202.26,100.00,-43.14"/>
    </edge>
    <edge id=":C1_11" function="internal">
        <lane id=":C1_11_0" index="0" speed="3.65" length="2.34" shape="202.26,100.00,-43.14 201.86,100.80,-43.14 200.66,101.60,-43.14"/>
    </edge>
    <edge id=":D0_0" function="internal">
        <lane id=":D0_0_0" index="0" speed="6.57" length="9.12" shape="315.62,1.60,16.46 313.18,1.96,16.46 311.42,3.02,16.46 310.34,4.80,16.46 309.95,7.28,16.46"/>
    </edge>
    <edge id=":D0_1" function="internal">
        <lane id=":D0_1_0" index="0" speed="13.89" length="14.40" shape="315.62,1.60,16.46 301.22,1.60,16.46"/>
    </edge>
    <edge id=":D0_2" function="internal">
        <lane id=":D0_2_0" index="0" speed="3.65" length="2.34" shape="315.62,1.60,16.46 314.42,0.80,16.46 314.02,0.00,16.46"/>
    </edge>
    <edge id=":D0_9" function="internal">
        <lane id=":D0_9_0" index="0" speed="3.65" length="2.34" shape="314.02,0.00,16.46 314.42,-0.80,16.46 315.62,-1.60,16.46"/>
    </edge>
    <edge id=":D0_3" function="internal">
        <lane id=":D0_3_0" index="0" speed="13.89" length="14.40" shape="301.22,-1.60,16.46 315.62,-1.60,16.46"/>
    </edge>
    <edge id=":D0_4" function="internal">
        <lane id=":D0_4_0" index="0" speed="7.97" length="5.93" shape="301.22,-1.60,16.46 305.10,-1.04,16.46 306.82,-0.00,16.46"/>
    </edge>
    <edge id=":D0_5" function="internal">
        <lane id=":D0_5_0" index="0" speed="3.65" length="2.34" shape="301.22,-1.60,16.46 302.42,-0.80,16.46 302.82,0.00,16.46"/>
    </edge>
    <edge id=":D0_10" function="internal">
        <lane id=":D0_10_0" index="0" speed="7.97" length="8.33" shape="306.82,-0.00,16.46 307.84,0.62,16.46 309.46,3.40,16.46 309.95,7.28,16.46"/>
    </edge>
    <edge id=":D0_11" function="internal">
        <lane id=":D0_11_0" index="0" speed="3.65" length="2.34" shape="302.82,0.00,16.46 302.42,0.80,16.46 301.22,1.60,16.46"/>
    </edge>
    <edge id=":D0_6" function="internal">
        <lane id=":D0_6_0" index="0" speed="6.47" length="9.03" shape="306.75,7.23,16.46 306.44,4.77,16.46 305.42,3.01,16.46 303.68,1.95,16.46 301.22,1.60,16.46"/>
    </edge>
    <edge id=":D0_7" function="internal">
        <lane id=":D0_7_0" index="0" speed="8.06" length="14.22" shape="306.75,7.23,16.46 307.36,3.37,16.46 309.04,0.61,16.46 311.80,-1.05,16.46 315.62,-1.60,16.46"/>
    </edge>
    <edge id=":D0_8" function="internal">
        <lane id=":D0_8_0" index="0" speed="3.65" length="4.67" shape="306.75,7.23,16.46 307.57,6.04,16.46 308.38,5.65,16.46 309.17,6.07,16.46 309.95,7.28,16.46"/>
    </edge>
    <edge id=":D1_0" function="internal">
        <lane id=":D1_0_0" index="0" speed="13.89" length="14.40" shape="314.02,101.60,-23.61 299.62,101.60,-23.61"/>
    </edge>
    <edge id=":D1_1" function="internal">
        <lane id=":D1_1_0" index="0" speed="7.97" length="5.93" shape="314.02,101.60,-23.61 310.14,101.04,-23.61 308.42,100.00,-23.61"/>
    </edge>
    <edge id=":D1_2" function="internal">
        <lane id=":D1_2_0" index="0" speed="3.65" length="2.34" shape="314.02,101.60,-23.61 312.82,100.80,-23.61 312.42,100.00,-23.61"/>
    </edge>
    <edge id=":D1_9" function="internal">
        <lane id=":D1_9_0" index="0" speed="7.97" length="8.33" shape="308.42,100.00,-23.61 307.40,99.38,-23.61 305.78,96.60,-23.61 305.29,92.72,-23.61"/>
    </edge>
    <edge id=":D1_10" function="internal">
        <lane id=":D1_10_0" index="0" speed="3.65" length="2.34" shape="312.42,100.00,-23.61 312.82,99.20,-23.61 314.02,98.40,-23.61"/>
    </edge>
    <edge id=":D1_3" function="internal">
        <lane id=":D1_3_0" index="0" speed="6.47" length="9.03" shape="308.49,92.77,-23.61 308.80,95.23,-23.61 309.82,96.99,-23.61 311.56,98.05,-23.61 314.02,98.40,-23.61"/>
    </edge>
    <edge id=":D1_4" function="internal">
        <lane id=":D1_4_0" index="0" speed="8.06" length="14.22" shape="308.49,92.77,-23.61 307.88,96.63,-23.61 306.20,99.39,-23.61 303.44,101.05,-23.61 299.62,101.60,-23.61"/>
    </edge>
    <edge id=":D1_5" function="internal">
        <lane id=":D1_5_0" index="0" speed="3.65" length="4.67" shape="308.49,92.77,-23.61 307.67,93.96,-23.61 306.86,94.35,-23.61 306.07,93.93,-23.61 305.29,92.72,-23.61"/>
    </edge>
    <edge id=":D1_6" function="internal">
        <lane id=":D1_6_0" index="0" speed="6.57" length="9.12" shape="299.62,98.40,-23.61 302.06,98.04,-23.61 303.82,96.98,-23.61 304.90,95.20,-23.61 305.29,92.72,-23.61"/>
    </edge>
    <edge id=":D1_7" function="internal">
        <lane id=":D1_7_0" index="0" speed="13.89" length="14.40" shape="299.62,98.40,-23.61 314.02,98.40,-23.61"/>
    </edge>
    <edge id=":D1_8" function="internal">
        <lane id=":D1_8_0" index="0" speed="3.65" length="2.34" shape="299.62,98.40,-23.61 300.82,99.20,-23.61 301.22,100.00,-23.61"/>
    </edge>
    <edge id=":D1_11" function="internal">
        <lane id=":D1_11_0" index="0" speed="3.65" length="2.34" shape="301.22,100.00,-23.61 300.82,100.80,-23.61 299.62,101.60,-23.61"/>
    </edge>
    <edge id=":E0_0" function="internal">
        <lane id=":E0_0_0" index="0" speed="6.55" length="9.09" shape="396.48,7.26,19.74 396.11,4.78,19.74 395.04,3.01,19.74 393.28,1.95,19.74 390.84,1.60,19.74"/>
    </edge>
    <edge id=":E0_1" function="internal">
        <lane id=":E0_1_0" index="0" speed="7.98" length="14.24" shape="396.48,7.26,19.74 396.99,3.38,19.74 398.62,0.61,19.74 401.37,-1.05,19.74 405.24,-1.60,19.74"/>
    </edge>
    <edge id=":E0_2" function="internal">
        <lane id=":E0_2_0" index="0" speed="3.65" length="4.67" shape="396.48,7.26,19.74 397.27,6.05,19.74 398.07,5.64,19.74 398.87,6.03,19.74 399.68,7.22,19.74"/>
    </edge>
    <edge id=":E0_3" function="internal">
        <lane id=":E0_3_0" index="0" speed="6.48" length="9.03" shape="405.24,1.60,19.74 402.78,1.95,19.74 401.04,3.00,19.74 400.01,4.76,19.74 399.68,7.22,19.74"/>
    </edge>
    <edge id=":E0_4" function="internal">
        <lane id=":E0_4_0" index="0" speed="13.89" length="14.40" shape="405.24,1.60,19.74 390.84,1.60,19.74"/>
    </edge>
    <edge id=":E0_5" function="internal">
        <lane id=":E0_5_0" index="0" speed="3.65" length="2.34" shape="405.24,1.60,19.74 404.04,0.80,19.74 403.64,0.00,19.74"/>
    </edge>
    <edge id=":E0_9" function="internal">
        <lane id=":E0_9_0" index="0" speed="3.65" length="2.34" shape="403.64,0.00,19.74 404.04,-0.80,19.74 405.24,-1.60,19.74"/>
    </edge>
    <edge id=":E0_6" function="internal">
        <lane id=":E0_6_0" index="0" speed="13.89" length="14.40" shape="390.84,-1.60,19.74 405.24,-1.60,19.74"/>
    </edge>
    <edge id=":E0_7" function="internal">
        <lane id=":E0_7_0" index="0" speed="8.04" length="5.91" shape="390.84,-1.60,19.74 394.67,-1.05,19.74 396.41,0.00,19.74"/>
    </edge>
    <edge id=":E0_8" function="internal">
        <lane id=":E0_8_0" index="0" speed="3.65" length="2.34" shape="390.84,-1.60,19.74 392.04,-0.80,19.74 392.44,0.00,19.74"/>
    </edge>
    <edge id=":E0_10" function="internal">
        <lane id=":E0_10_0" index="0" speed="8.04" length="8.30" shape="396.41,0.00,19.74 397.42,0.60,19.74 399.09,3.36,19.74 399.68,7.22,19.74"/>
    </edge>
    <edge id=":E0_11" function="internal">
        <lane id=":E0_11_0" index="0" speed="3.65" length="2.34" shape="392.44,0.00,19.74 392.04,0.80,19.74 390.84,1.60,19.74"/>
    </edge>
    <edge id=":E1_0" function="internal">
        <lane id=":E1_0_0" index="0" speed="13.89" length="14.40" shape="406.34,101.60,33.00 391.94,101.60,33.00"/>
    </edge>
    <edge id=":E1_1" function="internal">
        <lane id=":E1_1_0" index="0" speed="8.04" length="5.91" shape="406.34,101.60,33.00 402.51,101.05,33.00 400.76,100.00,33.00"/>
    </edge>
    <edge id=":E1_2" function="internal">
        <lane id=":E1_2_0" index="0" speed="3.65" length="2.34" shape="406.34,101.60,33.00 405.14,100.80,33.00 404.74,100.00,33.00"/>
    </edge>
    <edge id=":E1_9" function="internal">
        <lane id=":E1_9_0" index="0" speed="8.04" length="8.30" shape="400.76,100.00,33.00 399.76,99.40,33.00 398.09,96.64,33.00 397.49,92.78,33.00"/>
    </edge>
    <edge id=":E1_10" function="internal">
        <lane id=":E1_10_0" index="0" speed="3.65" length="2.34" shape="404.74,100.00,33.00 405.14,99.20,33.00 406.34,98.40,33.00"/>
    </edge>
    <edge id=":E1_3" function="internal">
        <lane id=":E1_3_0" index="0" speed="6.55" length="9.09" shape="400.69,92.74,33.00 401.07,95.22,33.00 402.14,96.99,33.00 403.90,98.05,33.00 406.34,98.40,33.00"/>
    </edge>
    <edge id=":E1_4" function="internal">
        <lane id=":E1_4_0" index="0" speed="7.98" length="14.24" shape="400.69,92.74,33.00 400.19,96.62,33.00 398.56,99.39,33.00 395.81,101.05,33.00 391.94,101.60,33.00"/>
    </edge>
    <edge id=":E1_5" function="internal">
        <lane id=":E1_5_0" index="0" speed="3.65" length="4.67" shape="400.69,92.74,33.00 399.91,93.95,33.00 399.11,94.36,33.00 398.31,93.97,33.00 397.49,92.78,33.00"/>
    </edge>
    <edge id=":E1_6" function="internal">
        <lane id=":E1_6_0" index="0" speed="6.48" length="9.03" shape="391.94,98.40,33.00 394.39,98.05,33.00 396.14,97.00,33.00 397.17,95.24,33.00 397.49,92.78,33.00"/>
    </edge>
    <edge id=":E1_7" function="internal">
        <lane id=":E1_7_0" index="0" speed="13.89" length="14.40" shape="391.94,98.40,33.00 406.34,98.40,33.00"/>
    </edge>
    <edge id=":E1_8" function="internal">
        <lane id=":E1_8_0" index="0" speed="3.65" length="2.34" shape="391.94,98.40,33.00 393.14,99.20,33.00 393.54,100.00,33.00"/>
    </edge>
    <edge id=":E1_11" function="internal">
        <lane id=":E1_11_0" index="0" speed="3.65" length="2.34" shape="393.54,100.00,33.00 393.14,100.80,33.00 391.94,101.60,33.00"/>
    </edge>
    <edge id=":F0_0" function="internal">
        <lane id=":F0_0_0" index="0" speed="7.62" length="10.40" shape="511.94,8.24,-7.64 510.89,5.34,-7.64 509.39,3.26,-7.64 507.44,2.02,-7.64 505.04,1.60,-7.64"/>
    </edge>
    <edge id=":F0_1" function="internal">
        <lane id=":F0_1_0" index="0" speed="7.63" length="15.21" shape="511.94,8.24,-7.64 511.51,3.94,-7.64 512.64,0.86,-7.64 515.35,-0.98,-7.64 519.64,-1.60,-7.64"/>
    </edge>
    <edge id=":F0_2" function="internal">
        <lane id=":F0_2_0" index="0" speed="3.65" length="4.67" shape="511.94,8.24,-7.64 512.43,6.88,-7.64 513.11,6.30,-7.64 513.98,6.50,-7.64 515.05,7.47,-7.64"/>
    </edge>
    <edge id=":F0_3" function="internal">
        <lane id=":F0_3_0" index="0" speed="6.04" length="9.07" shape="519.64,1.60,-7.64 517.08,1.97,-7.64 515.47,3.07,-7.64 514.79,4.90,-7.64 515.05,7.47,-7.64"/>
    </edge>
    <edge id=":F0_4" function="internal">
        <lane id=":F0_4_0" index="0" speed="13.89" length="14.60" shape="519.64,1.60,-7.64 505.04,1.60,-7.64"/>
    </edge>
    <edge id=":F0_5" function="internal">
        <lane id=":F0_5_0" index="0" speed="3.65" length="2.34" shape="519.64,1.60,-7.64 518.44,0.80,-7.64 518.04,0.00,-7.64"/>
    </edge>
    <edge id=":F0_9" function="internal">
        <lane id=":F0_9_0" index="0" speed="3.65" length="2.34" shape="518.04,0.00,-7.64 518.44,-0.80,-7.64 519.64,-1.60,-7.64"/>
    </edge>
    <edge id=":F0_6" function="internal">
        <lane id=":F0_6_0" index="0" speed="13.89" length="14.60" shape="505.04,-1.60,-7.64 519.64,-1.60,-7.64"/>
    </edge>
    <edge id=":F0_7" function="internal">
        <lane id=":F0_7_0" index="0" speed="8.96" length="5.59" shape="505.04,-1.60,-7.64 508.57,-1.03,-7.64 510.30,0.00,-7.64"/>
    </edge>
    <edge id=":F0_8" function="internal">
        <lane id=":F0_8_0" index="0" speed="3.65" length="2.34" shape="505.04,-1.60,-7.64 506.24,-0.80,-7.64 506.64,0.00,-7.64"/>
    </edge>
    <edge id=":F0_10" function="internal">
        <lane id=":F0_10_0" index="0" speed="8.96" length="9.09" shape="510.30,0.00,-7.64 511.42,0.67,-7.64 513.58,3.50,-7.64 515.05,7.47,-7.64"/>
    </edge>
    <edge id=":F0_11" function="internal">
        <lane id=":F0_11_0" index="0" speed="3.65" length="2.34" shape="506.64,0.00,-7.64 506.24,0.80,-7.64 505.04,1.60,-7.64"/>
    </edge>
    <edge id=":F1_0" function="internal">
        <lane id=":F1_0_0" index="0" speed="13.89" length="18.50" shape="546.83,101.60,28.20 528.33,101.60,28.49"/>
    </edge>
    <edge id=":F1_1" function="internal">
        <lane id=":F1_1_0" index="0" speed="9.88" length="7.95" shape="546.83,101.60,28.20 541.59,101.03,28.20 539.12,100.00,28.20"/>
    </edge>
    <edge id=":F1_2" function="internal">
        <lane id=":F1_2_0" index="0" speed="3.65" length="2.34" shape="546.83,101.60,28.20 545.63,100.80,28.20 545.23,100.00,28.20"/>
    </edge>
    <edge id=":F1_9" function="internal">
        <lane id=":F1_9_0" index="0" speed="9.88" length="10.10" shape="539.12,100.00,28.20 537.52,99.33,28.20 534.63,96.50,28.20 532.91,92.53,28.20"/>
    </edge>
    <edge id=":F1_10" function="internal">
        <lane id=":F1_10_0" index="0" speed="3.65" length="2.34" shape="545.23,100.00,28.20 545.63,99.20,28.20 546.83,98.40,28.20"/>
    </edge>
    <edge id=":F1_3" function="internal">
        <lane id=":F1_3_0" index="0" speed="8.69" length="13.77" shape="536.02,91.76,28.20 537.31,94.66,28.20 539.55,96.74,28.20 542.72,97.98,28.20 546.83,98.40,28.20"/>
    </edge>
    <edge id=":F1_4" function="internal">
        <lane id=":F1_4_0" index="0" speed="7.63" length="15.21" shape="536.02,91.76,28.20 536.46,96.06,28.28 535.32,99.14,28.34 532.61,100.98,28.41 528.33,101.60,28.49"/>
    </edge>
    <edge id=":F1_5" function="internal">
        <lane id=":F1_5_0" index="0" speed="3.65" length="4.67" shape="536.02,91.76,28.20 535.53,93.12,28.20 534.85,93.70,28.20 533.98,93.50,28.20 532.91,92.53,28.20"/>
    </edge>
    <edge id=":F1_6" function="internal">
        <lane id=":F1_6_0" index="0" speed="6.04" length="9.08" shape="528.33,98.40,28.50 530.88,98.03,28.41 532.50,96.93,28.35 533.17,95.10,28.28 532.91,92.53,28.20"/>
    </edge>
    <edge id=":F1_7" function="internal">
        <lane id=":F1_7_0" index="0" speed="13.89" length="18.50" shape="528.33,98.40,28.50 546.83,98.40,28.20"/>
    </edge>
    <edge id=":F1_8" function="internal">
        <lane id=":F1_8_0" index="0" speed="3.65" length="2.34" shape="528.33,98.40,28.50 529.53,99.20,28.49 529.93,100.00,28.49"/>
    </edge>
    <edge id=":F1_11" function="internal">
        <lane id=":F1_11_0" index="0" speed="3.65" length="2.34" shape="529.93,100.00,28.49 529.53,100.80,28.49 528.33,101.60,28.49"/>
    </edge>
    <edge id=":G0_0" function="internal">
        <lane id=":G0_0_0" index="0" speed="6.72" length="9.31" shape="619.31,1.60,18.16 616.88,1.97,18.16 615.10,3.06,18.16 613.96,4.89,18.16 613.48,7.45,18.16"/>
    </edge>
    <edge id=":G0_1" function="internal">
        <lane id=":G0_1_0" index="0" speed="13.89" length="14.41" shape="619.31,1.60,18.16 604.90,1.60,18.16"/>
    </edge>
    <edge id=":G0_2" function="internal">
        <lane id=":G0_2_0" index="0" speed="3.65" length="2.34" shape="619.31,1.60,18.16 618.11,0.80,18.16 617.71,0.00,18.16"/>
    </edge>
    <edge id=":G0_9" function="internal">
        <lane id=":G0_9_0" index="0" speed="3.65" length="2.34" shape="617.71,0.00,18.16 618.11,-0.80,18.16 619.31,-1.60,18.16"/>
    </edge>
    <edge id=":G0_3" function="internal">
        <lane id=":G0_3_0" index="0" speed="13.89" length="14.41" shape="604.90,-1.60,18.16 619.31,-1.60,18.16"/>
    </edge>
    <edge id=":G0_4" function="internal">
        <lane id=":G0_4_0" index="0" speed="7.91" length="5.94" shape="604.90,-1.60,18.16 608.84,-1.03,18.16 610.51,-0.00,18.16"/>
    </edge>
    <edge id=":G0_5" function="internal">
        <lane id=":G0_5_0" index="0" speed="3.65" length="2.34" shape="604.90,-1.60,18.16 606.10,-0.80,18.16 606.50,0.00,18.16"/>
    </edge>
    <edge id=":G0_10" function="internal">
        <lane id=":G0_10_0" index="0" speed="7.91" length="8.46" shape="610.51,-0.00,18.16 611.58,0.66,18.16 613.13,3.49,18.16 613.48,7.45,18.16"/>
    </edge>
    <edge id=":G0_11" function="internal">
        <lane id=":G0_11_0" index="0" speed="3.65" length="2.34" shape="606.50,0.00,18.16 606.10,0.80,18.16 604.90,1.60,18.16"/>
    </edge>
    <edge id=":G0_6" function="internal">
        <lane id=":G0_6_0" index="0" speed="6.39" length="9.04" shape="610.29,7.28,18.16 610.07,4.79,18.16 609.09,3.02,18.16 607.37,1.95,18.16 604.90,1.60,18.16"/>
    </edge>
    <edge id=":G0_7" function="internal">
        <lane id=":G0_7_0" index="0" speed="8.18" length="14.27" shape="610.29,7.28,18.16 611.03,3.39,18.16 612.78,0.62,18.16 615.54,-1.05,18.16 619.31,-1.60,18.16"/>
    </edge>
    <edge id=":G0_8" function="internal">
        <lane id=":G0_8_0" index="0" speed="3.65" length="4.67" shape="610.29,7.28,18.16 611.15,6.12,18.16 611.97,5.77,18.16 612.75,6.21,18.16 613.48,7.45,18.16"/>
    </edge>
    <edge id=":G1_0" function="internal">
        <lane id=":G1_0_0" index="0" speed="13.89" length="14.41" shape="614.29,101.60,-17.23 599.88,101.60,-17.23"/>
    </edge>
    <edge id=":G1_1" function="internal">
        <lane id=":G1_1_0" index="0" speed="7.91" length="5.94" shape="614.29,101.60,-17.23 610.36,101.03,-17.23 608.68,100.00,-17.23"/>
    </edge>
    <edge id=":G1_2" function="internal">
        <lane id=":G1_2_0" index="0" speed="3.65" length="2.34" shape="614.29,101.60,-17.23 613.09,100.80,-17.23 612.69,100.00,-17.23"/>
    </edge>
    <edge id=":G1_9" function="internal">
        <lane id=":G1_9_0" index="0" speed="7.91" length="8.46" shape="608.68,100.00,-17.23 607.61,99.34,-17.23 606.07,96.51,-17.23 605.71,92.55,-17.23"/>
    </edge>
    <edge id=":G1_10" function="internal">
        <lane id=":G1_10_0" index="0" speed="3.65" length="2.34" shape="612.69,100.00,-17.23 613.09,99.20,-17.23 614.29,98.40,-17.23"/>
    </edge>
    <edge id=":G1_3" function="internal">
        <lane id=":G1_3_0" index="0" speed="6.39" length="9.04" shape="608.91,92.72,-17.23 609.13,95.21,-17.23 610.10,96.98,-17.23 611.82,98.05,-17.23 614.29,98.40,-17.23"/>
    </edge>
    <edge id=":G1_4" function="internal">
        <lane id=":G1_4_0" index="0" speed="8.18" length="14.27" shape="608.91,92.72,-17.23 608.16,96.61,-17.23 606.41,99.38,-17.23 603.65,101.05,-17.23 599.88,101.60,-17.23"/>
    </edge>
    <edge id=":G1_5" function="internal">
        <lane id=":G1_5_0" index="0" speed="3.65" length="4.67" shape="608.91,92.72,-17.23 608.04,93.88,-17.23 607.22,94.23,-17.23 606.45,93.79,-17.23 605.71,92.55,-17.23"/>
    </edge>
    <edge id=":G1_6" function="internal">
        <lane id=":G1_6_0" index="0" speed="6.72" length="9.31" shape="599.88,98.40,-17.23 602.31,98.03,-17.23 604.10,96.94,-17.23 605.23,95.11,-17.23 605.71,92.55,-17.23"/>
    </edge>
    <edge id=":G1_7" function="internal">
        <lane id=":G1_7_0" index="0" speed="13.89" length="14.41" shape="599.88,98.40,-17.23 614.29,98.40,-17.23"/>
    </edge>
    <edge id=":G1_8" function="internal">