<?xml version="1.0" encoding="UTF-8"?>

<!-- generated on Fri Nov  6 10:50:43 2020 by Eclipse SUMO netgenerate Version 1.7.0
<configuration xmlns:xsi="http://www.w3.org/2001/XMLSchema-instance" xsi:noNamespaceSchemaLocation="http://sumo.dlr.de/xsd/netgenerateConfiguration.xsd">

    <grid_network>
        <grid value="true"/>
        <grid.x-number value="301"/>
        <grid.y-number value="2"/>
    </grid_network>

    <output>
        <output-file value="31.net.xml"/>
    </output>

    <processing>
        <perturb-z value="7"/>
    </processing>

    <building_defaults>
        <default.speed value="100"/>
    </building_defaults>

    <random_number>
        <seed value="18875265"/>
    </random_number>

</configuration>
-->

<net version="1.6" junctionCornerDetail="5" limitTurnSpeed="5.50" xmlns:xsi="http://www.w3.org/2001/XMLSchema-instance" xsi:noNamespaceSchemaLocation="http://sumo.dlr.de/xsd/net_file.xsd">

    <location netOffset="0.00,0.00" convBoundary="0.00,0.00,30000.00,100.00" origBoundary="0.00,0.00,30000.00,100.00" projParameter="!"/>

    <edge id=":AA0_0" function="internal">
        <lane id=":AA0_0_0" index="0" speed="6.08" length="7.75" shape="-1.60,3.20,-3.32 -1.30,1.10,-3.23 -0.40,-0.40,-3.16 1.10,-1.30,-3.09 3.20,-1.60,-3.00"/>
    </edge>
    <edge id=":AA0_1" function="internal">
        <lane id=":AA0_1_0" index="0" speed="3.90" length="2.61" shape="3.20,1.60,-2.95 2.50,1.70,-3.05 2.00,2.00,-3.13 1.70,2.50,-3.22 1.60,3.20,-3.32"/>
    </edge>
    <edge id=":AA1_0" function="internal">
        <lane id=":AA1_0_0" index="0" speed="6.08" length="7.76" shape="3.20,101.60,5.92 1.10,101.30,5.78 -0.40,100.40,5.66 -1.30,98.90,5.54 -1.60,96.80,5.39"/>
    </edge>
    <edge id=":AA1_1" function="internal">
        <lane id=":AA1_1_0" index="0" speed="3.90" length="2.63" shape="1.60,96.80,5.39 1.70,97.50,5.53 2.00,98.00,5.65 2.50,98.30,5.76 3.20,98.40,5.90"/>
    </edge>
    <edge id=":AB0_0" function="internal">
        <lane id=":AB0_0_0" index="0" speed="6.51" length="9.03" shape="98.40,7.20,15.70 98.05,4.75,15.70 97.00,3.00,15.70 95.25,1.95,15.70 92.80,1.60,15.70"/>
    </edge>
    <edge id=":AB0_1" function="internal">
        <lane id=":AB0_1_0" index="0" speed="8.00" length="14.19" shape="98.40,7.20,15.70 98.95,3.35,15.70 100.60,0.60,15.70 103.35,-1.05,15.70 107.20,-1.60,15.70"/>
    </edge>
    <edge id=":AB0_2" function="internal">
        <lane id=":AB0_2_0" index="0" speed="3.65" length="4.67" shape="98.40,7.20,15.70 99.20,6.00,15.70 100.00,5.60,15.70 100.80,6.00,15.70 101.60,7.20,15.70"/>
    </edge>
    <edge id=":AB0_3" function="internal">
        <lane id=":AB0_3_0" index="0" speed="6.51" length="9.03" shape="107.20,1.60,15.70 104.75,1.95,15.70 103.00,3.00,15.70 101.95,4.75,15.70 101.60,7.20,15.70"/>
    </edge>
    <edge id=":AB0_4" function="internal">
        <lane id=":AB0_4_0" index="0" speed="100.00" length="14.40" shape="107.20,1.60,15.70 92.80,1.60,15.70"/>
    </edge>
    <edge id=":AB0_5" function="internal">
        <lane id=":AB0_5_0" index="0" speed="3.65" length="2.34" shape="107.20,1.60,15.70 106.00,0.80,15.70 105.60,0.00,15.70"/>
    </edge>
    <edge id=":AB0_9" function="internal">
        <lane id=":AB0_9_0" index="0" speed="3.65" length="2.34" shape="105.60,0.00,15.70 106.00,-0.80,15.70 107.20,-1.60,15.70"/>
    </edge>
    <edge id=":AB0_6" function="internal">
        <lane id=":AB0_6_0" index="0" speed="100.00" length="14.40" shape="92.80,-1.60,15.70 107.20,-1.60,15.70"/>
    </edge>
    <edge id=":AB0_7" function="internal">
        <lane id=":AB0_7_0" index="0" speed="8.00" length="5.93" shape="92.80,-1.60,15.70 96.65,-1.05,15.70 98.40,0.00,15.70"/>
    </edge>
    <edge id=":AB0_8" function="internal">
        <lane id=":AB0_8_0" index="0" speed="3.65" length="2.34" shape="92.80,-1.60,15.70 94.00,-0.80,15.70 94.40,0.00,15.70"/>
    </edge>
    <edge id=":AB0_10" function="internal">
        <lane id=":AB0_10_0" index="0" speed="8.00" length="8.26" shape="98.40,0.00,15.70 99.40,0.60,15.70 101.05,3.35,15.70 101.60,7.20,15.70"/>
    </edge>
    <edge id=":AB0_11" function="internal">
        <lane id=":AB0_11_0" index="0" speed="3.65" length="2.34" shape="94.40,0.00,15.70 94.00,0.80,15.70 92.80,1.60,15.70"/>
    </edge>
    <edge id=":AB1_0" function="internal">
        <lane id=":AB1_0_0" index="0" speed="100.00" length="14.40" shape="107.20,101.60,12.14 92.80,101.60,12.32"/>
    </edge>
    <edge id=":AB1_1" function="internal">
        <lane id=":AB1_1_0" index="0" speed="8.00" length="5.93" shape="107.20,101.60,12.14 103.35,101.05,12.19 101.60,100.00,12.22"/>
    </edge>
    <edge id=":AB1_2" function="internal">
        <lane id=":AB1_2_0" index="0" speed="3.65" length="2.34" shape="107.20,101.60,12.14 106.00,100.80,12.14 105.60,100.00,12.14"/>
    </edge>
    <edge id=":AB1_9" function="internal">
        <lane id=":AB1_9_0" index="0" speed="8.00" length="8.26" shape="101.60,100.00,12.22 100.60,99.40,12.23 98.95,96.65,12.27 98.40,92.80,12.32"/>
    </edge>
    <edge id=":AB1_10" function="internal">
        <lane id=":AB1_10_0" index="0" speed="3.65" length="2.34" shape="105.60,100.00,12.14 106.00,99.20,12.14 107.20,98.40,12.14"/>
    </edge>
    <edge id=":AB1_3" function="internal">
        <lane id=":AB1_3_0" index="0" speed="6.51" length="9.03" shape="101.60,92.80,12.32 101.95,95.25,12.27 103.00,97.00,12.23 104.75,98.05,12.19 107.20,98.40,12.14"/>
    </edge>
    <edge id=":AB1_4" function="internal">
        <lane id=":AB1_4_0" index="0" speed="8.00" length="14.19" shape="101.60,92.80,12.32 101.05,96.65,12.32 99.40,99.40,12.32 96.65,101.05,12.32 92.80,101.60,12.32"/>
    </edge>
    <edge id=":AB1_5" function="internal">
        <lane id=":AB1_5_0" index="0" speed="3.65" length="4.67" shape="101.60,92.80,12.32 100.80,94.00,12.32 100.00,94.40,12.32 99.20,94.00,12.32 98.40,92.80,12.32"/>
    </edge>
    <edge id=":AB1_6" function="internal">
        <lane id=":AB1_6_0" index="0" speed="6.51" length="9.03" shape="92.80,98.40,12.32 95.25,98.05,12.32 97.00,97.00,12.32 98.05,95.25,12.32 98.40,92.80,12.32"/>
    </edge>
    <edge id=":AB1_7" function="internal">
        <lane id=":AB1_7_0" index="0" speed="100.00" length="14.40" shape="92.80,98.40,12.32 107.20,98.40,12.14"/>
    </edge>
    <edge id=":AB1_8" function="internal">
        <lane id=":AB1_8_0" index="0" speed="3.65" length="2.34" shape="92.80,98.40,12.32 94.00,99.20,12.32 94.40,100.00,12.32"/>
    </edge>
    <edge id=":AB1_11" function="internal">
        <lane id=":AB1_11_0" index="0" speed="3.65" length="2.34" shape="94.40,100.00,12.32 94.00,100.80,12.32 92.80,101.60,12.32"/>
    </edge>
    <edge id=":AC0_0" function="internal">
        <lane id=":AC0_0_0" index="0" speed="6.51" length="9.03" shape="198.40,7.20,-7.85 198.05,4.75,-7.85 197.00,3.00,-7.85 195.25,1.95,-7.85 192.80,1.60,-7.85"/>
    </edge>
    <edge id=":AC0_1" function="internal">
        <lane id=":AC0_1_0" index="0" speed="8.00" length="14.19" shape="198.40,7.20,-7.85 198.95,3.35,-7.85 200.60,0.60,-7.85 203.35,-1.05,-7.85 207.20,-1.60,-7.85"/>
    </edge>
    <edge id=":AC0_2" function="internal">
        <lane id=":AC0_2_0" index="0" speed="3.65" length="4.67" shape="198.40,7.20,-7.85 199.20,6.00,-7.85 200.00,5.60,-7.85 200.80,6.00,-7.85 201.60,7.20,-7.85"/>
    </edge>
    <edge id=":AC0_3" function="internal">
        <lane id=":AC0_3_0" index="0" speed="6.51" length="9.03" shape="207.20,1.60,-7.85 204.75,1.95,-7.85 203.00,3.00,-7.85 201.95,4.75,-7.85 201.60,7.20,-7.85"/>
    </edge>
    <edge id=":AC0_4" function="internal">
        <lane id=":AC0_4_0" index="0" speed="100.00" length="14.40" shape="207.20,1.60,-7.85 192.80,1.60,-7.85"/>
    </edge>
    <edge id=":AC0_5" function="internal">
        <lane id=":AC0_5_0" index="0" speed="3.65" length="2.34" shape="207.20,1.60,-7.85 206.00,0.80,-7.85 205.60,0.00,-7.85"/>
    </edge>
    <edge id=":AC0_9" function="internal">
        <lane id=":AC0_9_0" index="0" speed="3.65" length="2.34" shape="205.60,0.00,-7.85 206.00,-0.80,-7.85 207.20,-1.60,-7.85"/>
    </edge>
    <edge id=":AC0_6" function="internal">
        <lane id=":AC0_6_0" index="0" speed="100.00" length="14.40" shape="192.80,-1.60,-7.85 207.20,-1.60,-7.85"/>
    </edge>
    <edge id=":AC0_7" function="internal">
        <lane id=":AC0_7_0" index="0" speed="8.00" length="5.93" shape="192.80,-1.60,-7.85 196.65,-1.05,-7.85 198.40,-0.00,-7.85"/>
    </edge>
    <edge id=":AC0_8" function="internal">
        <lane id=":AC0_8_0" index="0" speed="3.65" length="2.34" shape="192.80,-1.60,-7.85 194.00,-0.80,-7.85 194.40,0.00,-7.85"/>
    </edge>
    <edge id=":AC0_10" function="internal">
        <lane id=":AC0_10_0" index="0" speed="8.00" length="8.26" shape="198.40,-0.00,-7.85 199.40,0.60,-7.85 201.05,3.35,-7.85 201.60,7.20,-7.85"/>
    </edge>
    <edge id=":AC0_11" function="internal">
        <lane id=":AC0_11_0" index="0" speed="3.65" length="2.34" shape="194.40,0.00,-7.85 194.00,0.80,-7.85 192.80,1.60,-7.85"/>
    </edge>
    <edge id=":AC1_0" function="internal">
        <lane id=":AC1_0_0" index="0" speed="100.00" length="14.40" shape="207.20,101.60,9.76 192.80,101.60,9.94"/>
    </edge>
    <edge id=":AC1_1" function="internal">
        <lane id=":AC1_1_0" index="0" speed="8.00" length="5.93" shape="207.20,101.60,9.76 203.35,101.05,9.76 201.60,100.00,9.76"/>
    </edge>
    <edge id=":AC1_2" function="internal">
        <lane id=":AC1_2_0" index="0" speed="3.65" length="2.34" shape="207.20,101.60,9.76 206.00,100.80,9.76 205.60,100.00,9.76"/>
    </edge>
    <edge id=":AC1_9" function="internal">
        <lane id=":AC1_9_0" index="0" speed="8.00" length="8.26" shape="201.60,100.00,9.76 200.60,99.40,9.76 198.95,96.65,9.76 198.40,92.80,9.76"/>
    </edge>
    <edge id=":AC1_10" function="internal">
        <lane id=":AC1_10_0" index="0" speed="3.65" length="2.34" shape="205.60,100.00,9.76 206.00,99.20,9.76 207.20,98.40,9.76"/>
    </edge>
    <edge id=":AC1_3" function="internal">
        <lane id=":AC1_3_0" index="0" speed="6.51" length="9.03" shape="201.60,92.80,9.76 201.95,95.25,9.76 203.00,97.00,9.76 204.75,98.05,9.76 207.20,98.40,9.76"/>
    </edge>
    <edge id=":AC1_4" function="internal">
        <lane id=":AC1_4_0" index="0" speed="8.00" length="14.19" shape="201.60,92.80,9.76 201.05,96.65,9.81 199.40,99.40,9.85 196.65,101.05,9.89 192.80,101.60,9.94"/>
    </edge>
    <edge id=":AC1_5" function="internal">
        <lane id=":AC1_5_0" index="0" speed="3.65" length="4.67" shape="201.60,92.80,9.76 200.80,94.00,9.76 200.00,94.40,9.76 199.20,94.00,9.76 198.40,92.80,9.76"/>
    </edge>
    <edge id=":AC1_6" function="internal">
        <lane id=":AC1_6_0" index="0" speed="6.51" length="9.03" shape="192.80,98.40,9.94 195.25,98.05,9.89 197.00,97.00,9.85 198.05,95.25,9.81 198.40,92.80,9.76"/>
    </edge>
    <edge id=":AC1_7" function="internal">
        <lane id=":AC1_7_0" index="0" speed="100.00" length="14.40" shape="192.80,98.40,9.94 207.20,98.40,9.76"/>
    </edge>
    <edge id=":AC1_8" function="internal">
        <lane id=":AC1_8_0" index="0" speed="3.65" length="2.34" shape="192.80,98.40,9.94 194.00,99.20,9.94 194.40,100.00,9.94"/>
    </edge>
    <edge id=":AC1_11" function="internal">
        <lane id=":AC1_11_0" index="0" speed="3.65" length="2.34" shape="194.40,100.00,9.94 194.00,100.80,9.94 192.80,101.60,9.94"/>
    </edge>
    <edge id=":AD0_0" function="internal">
        <lane id=":AD0_0_0" index="0" speed="6.51" length="9.03" shape="298.40,7.20,-2.89 298.05,4.75,-2.89 297.00,3.00,-2.89 295.25,1.95,-2.89 292.80,1.60,-2.89"/>
    </edge>
    <edge id=":AD0_1" function="internal">
        <lane id=":AD0_1_0" index="0" speed="8.00" length="14.19" shape="298.40,7.20,-2.89 298.95,3.35,-2.84 300.60,0.60,-2.80 303.35,-1.05,-2.76 307.20,-1.60,-2.72"/>
    </edge>
    <edge id=":AD0_2" function="internal">
        <lane id=":AD0_2_0" index="0" speed="3.65" length="4.67" shape="298.40,7.20,-2.89 299.20,6.00,-2.89 300.00,5.60,-2.89 300.80,6.00,-2.89 301.60,7.20,-2.89"/>
    </edge>
    <edge id=":AD0_3" function="internal">
        <lane id=":AD0_3_0" index="0" speed="6.51" length="9.03" shape="307.20,1.60,-2.72 304.75,1.95,-2.76 303.00,3.00,-2.80 301.95,4.75,-2.84 301.60,7.20,-2.89"/>
    </edge>
    <edge id=":AD0_4" function="internal">
        <lane id=":AD0_4_0" index="0" speed="100.00" length="14.40" shape="307.20,1.60,-2.72 292.80,1.60,-2.89"/>
    </edge>
    <edge id=":AD0_5" function="internal">
        <lane id=":AD0_5_0" index="0" speed="3.65" length="2.34" shape="307.20,1.60,-2.72 306.00,0.80,-2.72 305.60,0.00,-2.72"/>
    </edge>
    <edge id=":AD0_9" function="internal">
        <lane id=":AD0_9_0" index="0" speed="3.65" length="2.34" shape="305.60,0.00,-2.72 306.00,-0.80,-2.72 307.20,-1.60,-2.72"/>
    </edge>
    <edge id=":AD0_6" function="internal">
        <lane id=":AD0_6_0" index="0" speed="100.00" length="14.40" shape="292.80,-1.60,-2.89 307.20,-1.60,-2.72"/>
    </edge>
    <edge id=":AD0_7" function="internal">
        <lane id=":AD0_7_0" index="0" speed="8.00" length="5.93" shape="292.80,-1.60,-2.89 296.65,-1.05,-2.89 298.40,-0.00,-2.89"/>
    </edge>
    <edge id=":AD0_8" function="internal">
        <lane id=":AD0_8_0" index="0" speed="3.65" length="2.34" shape="292.80,-1.60,-2.89 294.00,-0.80,-2.89 294.40,0.00,-2.89"/>
    </edge>
    <edge id=":AD0_10" function="internal">
        <lane id=":AD0_10_0" index="0" speed="8.00" length="8.26" shape="298.40,-0.00,-2.89 299.40,0.60,-2.89 301.05,3.35,-2.89 301.60,7.20,-2.89"/>
    </edge>
    <edge id=":AD0_11" function="internal">
        <lane id=":AD0_11_0" index="0" speed="3.65" length="2.34" shape="294.40,0.00,-2.89 294.00,0.80,-2.89 292.80,1.60,-2.89"/>
    </edge>
    <edge id=":AD1_0" function="internal">
        <lane id=":AD1_0_0" index="0" speed="100.00" length="14.40" shape="307.20,101.60,3.51 292.80,101.60,3.51"/>
    </edge>
    <edge id=":AD1_1" function="internal">
        <lane id=":AD1_1_0" index="0" speed="8.00" length="5.93" shape="307.20,101.60,3.51 303.35,101.05,3.51 301.60,100.00,3.51"/>
    </edge>
    <edge id=":AD1_2" function="internal">
        <lane id=":AD1_2_0" index="0" speed="3.65" length="2.34" shape="307.20,101.60,3.51 306.00,100.80,3.51 305.60,100.00,3.51"/>
    </edge>
    <edge id=":AD1_9" function="internal">
        <lane id=":AD1_9_0" index="0" speed="8.00" length="8.26" shape="301.60,100.00,3.51 300.60,99.40,3.51 298.95,96.65,3.51 298.40,92.80,3.51"/>
    </edge>
    <edge id=":AD1_10" function="internal">
        <lane id=":AD1_10_0" index="0" speed="3.65" length="2.34" shape="305.60,100.00,3.51 306.00,99.20,3.51 307.20,98.40,3.51"/>
    </edge>
    <edge id=":AD1_3" function="internal">
        <lane id=":AD1_3_0" index="0" speed="6.51" length="9.03" shape="301.60,92.80,3.51 301.95,95.25,3.51 303.00,97.00,3.51 304.75,98.05,3.51 307.20,98.40,3.51"/>
    </edge>
    <edge id=":AD1_4" function="internal">
        <lane id=":AD1_4_0" index="0" speed="8.00" length="14.19" shape="301.60,92.80,3.51 301.05,96.65,3.51 299.40,99.40,3.51 296.65,101.05,3.51 292.80,101.60,3.51"/>
    </edge>
    <edge id=":AD1_5" function="internal">
        <lane id=":AD1_5_0" index="0" speed="3.65" length="4.67" shape="301.60,92.80,3.51 300.80,94.00,3.51 300.00,94.40,3.51 299.20,94.00,3.51 298.40,92.80,3.51"/>
    </edge>
    <edge id=":AD1_6" function="internal">
        <lane id=":AD1_6_0" index="0" speed="6.51" length="9.03" shape="292.80,98.40,3.51 295.25,98.05,3.51 297.00,97.00,3.51 298.05,95.25,3.51 298.40,92.80,3.51"/>
    </edge>
    <edge id=":AD1_7" function="internal">
        <lane id=":AD1_7_0" index="0" speed="100.00" length="14.40" shape="292.80,98.40,3.51 307.20,98.40,3.51"/>
    </edge>
    <edge id=":AD1_8" function="internal">
        <lane id=":AD1_8_0" index="0" speed="3.65" length="2.34" shape="292.80,98.40,3.51 294.00,99.20,3.51 294.40,100.00,3.51"/>
    </edge>
    <edge id=":AD1_11" function="internal">
        <lane id=":AD1_11_0" index="0" speed="3.65" length="2.34" shape="294.40,100.00,3.51 294.00,100.80,3.51 292.80,101.60,3.51"/>
    </edge>
    <edge id=":AE0_0" function="internal">
        <lane id=":AE0_0_0" index="0" speed="6.51" length="9.03" shape="398.40,7.20,-0.53 398.05,4.75,-0.58 397.00,3.00,-0.62 395.25,1.95,-0.65 392.80,1.60,-0.70"/>
    </edge>
    <edge id=":AE0_1" function="internal">
        <lane id=":AE0_1_0" index="0" speed="8.00" length="14.19" shape="398.40,7.20,-0.53 398.95,3.35,-0.51 400.60,0.60,-0.49 403.35,-1.05,-0.46 407.20,-1.60,-0.44"/>
    </edge>
    <edge id=":AE0_2" function="internal">
        <lane id=":AE0_2_0" index="0" speed="3.65" length="4.67" shape="398.40,7.20,-0.53 399.20,6.00,-0.53 400.00,5.60,-0.53 400.80,6.00,-0.53 401.60,7.20,-0.53"/>
    </edge>
    <edge id=":AE0_3" function="internal">
        <lane id=":AE0_3_0" index="0" speed="6.51" length="9.03" shape="407.20,1.60,-0.44 404.75,1.95,-0.46 403.00,3.00,-0.49 401.95,4.75,-0.51 401.60,7.20,-0.53"/>
    </edge>
    <edge id=":AE0_4" function="internal">
        <lane id=":AE0_4_0" index="0" speed="100.00" length="14.40" shape="407.20,1.60,-0.44 392.80,1.60,-0.70"/>
    </edge>
    <edge id=":AE0_5" function="internal">
        <lane id=":AE0_5_0" index="0" speed="3.65" length="2.34" shape="407.20,1.60,-0.44 406.00,0.80,-0.44 405.60,0.00,-0.44"/>
    </edge>
    <edge id=":AE0_9" function="internal">
        <lane id=":AE0_9_0" index="0" speed="3.65" length="2.34" shape="405.60,0.00,-0.44 406.00,-0.80,-0.44 407.20,-1.60,-0.44"/>
    </edge>
    <edge id=":AE0_6" function="internal">
        <lane id=":AE0_6_0" index="0" speed="100.00" length="14.40" shape="392.80,-1.60,-0.70 407.20,-1.60,-0.44"/>
    </edge>
    <edge id=":AE0_7" function="internal">
        <lane id=":AE0_7_0" index="0" speed="8.00" length="5.93" shape="392.80,-1.60,-0.70 396.65,-1.05,-0.65 398.40,-0.00,-0.63"/>
    </edge>
    <edge id=":AE0_8" function="internal">
        <lane id=":AE0_8_0" index="0" speed="3.65" length="2.34" shape="392.80,-1.60,-0.70 394.00,-0.80,-0.70 394.40,0.00,-0.70"/>
    </edge>
    <edge id=":AE0_10" function="internal">
        <lane id=":AE0_10_0" index="0" speed="8.00" length="8.26" shape="398.40,-0.00,-0.63 399.40,0.60,-0.62 401.05,3.35,-0.58 401.60,7.20,-0.53"/>
    </edge>
    <edge id=":AE0_11" function="internal">
        <lane id=":AE0_11_0" index="0" speed="3.65" length="2.34" shape="394.40,0.00,-0.70 394.00,0.80,-0.70 392.80,1.60,-0.70"/>
    </edge>
    <edge id=":AE1_0" function="internal">
        <lane id=":AE1_0_0" index="0" speed="100.00" length="14.40" shape="407.20,101.60,-4.50 392.80,101.60,-4.50"/>
    </edge>
    <edge id=":AE1_1" function="internal">
        <lane id=":AE1_1_0" index="0" speed="8.00" length="5.93" shape="407.20,101.60,-4.50 403.35,101.05,-4.50 401.60,100.00,-4.50"/>
    </edge>
    <edge id=":AE1_2" function="internal">
        <lane id=":AE1_2_0" index="0" speed="3.65" length="2.34" shape="407.20,101.60,-4.50 406.00,100.80,-4.50 405.60,100.00,-4.50"/>
    </edge>
    <edge id=":AE1_9" function="internal">
        <lane id=":AE1_9_0" index="0" speed="8.00" length="8.26" shape="401.60,100.00,-4.50 400.60,99.40,-4.50 398.95,96.65,-4.50 398.40,92.80,-4.50"/>
    </edge>
    <edge id=":AE1_10" function="internal">
        <lane id=":AE1_10_0" index="0" speed="3.65" length="2.34" shape="405.60,100.00,-4.50 406.00,99.20,-4.50 407.20,98.40,-4.50"/>
    </edge>
    <edge id=":AE1_3" function="internal">
        <lane id=":AE1_3_0" index="0" speed="6.51" length="9.03" shape="401.60,92.80,-4.50 401.95,95.25,-4.50 403.00,97.00,-4.50 404.75,98.05,-4.50 407.20,98.40,-4.50"/>
    </edge>
    <edge id=":AE1_4" function="internal">
        <lane id=":AE1_4_0" index="0" speed="8.00" length="14.19" shape="401.60,92.80,-4.50 401.05,96.65,-4.50 399.40,99.40,-4.50 396.65,101.05,-4.50 392.80,101.60,-4.50"/>
    </edge>
    <edge id=":AE1_5" function="internal">
        <lane id=":AE1_5_0" index="0" speed="3.65" length="4.67" shape="401.60,92.80,-4.50 400.80,94.00,-4.50 400.00,94.40,-4.50 399.20,94.00,-4.50 398.40,92.80,-4.50"/>
    </edge>
    <edge id=":AE1_6" function="internal">
        <lane id=":AE1_6_0" index="0" speed="6.51" length="9.03" shape="392.80,98.40,-4.50 395.25,98.05,-4.50 397.00,97.00,-4.50 398.05,95.25,-4.50 398.40,92.80,-4.50"/>
    </edge>
    <edge id=":AE1_7" function="internal">
        <lane id=":AE1_7_0" index="0" speed="100.00" length="14.40" shape="392.80,98.40,-4.50 407.20,98.40,-4.50"/>
    </edge>
    <edge id=":AE1_8" function="internal">
        <lane id=":AE1_8_0" index="0" speed="3.65" length="2.34" shape="392.80,98.40,-4.50 394.00,99.20,-4.50 394.40,100.00,-4.50"/>
    </edge>
    <edge id=":AE1_11" function="internal">
        <lane id=":AE1_11_0" index="0" speed="3.65" length="2.34" shape="394.40,100.00,-4.50 394.00,100.80,-4.50 392.80,101.60,-4.50"/>
    </edge>
    <edge id=":AF0_0" function="internal">
        <lane id=":AF0_0_0" index="0" speed="6.51" length="9.03" shape="498.40,7.20,0.74 498.05,4.75,0.72 497.00,3.00,0.70 495.25,1.95,0.68 492.80,1.60,0.65"/>
    </edge>
    <edge id=":AF0_1" function="internal">
        <lane id=":AF0_1_0" index="0" speed="8.00" length="14.19" shape="498.40,7.20,0.74 498.95,3.35,0.74 500.60,0.60,0.74 503.35,-1.05,0.74 507.20,-1.60,0.74"/>
    </edge>
    <edge id=":AF0_2" function="internal">
        <lane id=":AF0_2_0" index="0" speed="3.65" length="4.67" shape="498.40,7.20,0.74 499.20,6.00,0.74 500.00,5.60,0.74 500.80,6.00,0.74 501.60,7.20,0.74"/>
    </edge>
    <edge id=":AF0_3" function="internal">
        <lane id=":AF0_3_0" index="0" speed="6.51" length="9.03" shape="507.20,1.60,0.74 504.75,1.95,0.74 503.00,3.00,0.74 501.95,4.75,0.74 501.60,7.20,0.74"/>
    </edge>
    <edge id=":AF0_4" function="internal">
        <lane id=":AF0_4_0" index="0" speed="100.00" length="14.40" shape="507.20,1.60,0.74 492.80,1.60,0.65"/>
    </edge>
    <edge id=":AF0_5" function="internal">
        <lane id=":AF0_5_0" index="0" speed="3.65" length="2.34" shape="507.20,1.60,0.74 506.00,0.80,0.74 505.60,0.00,0.74"/>
    </edge>
    <edge id=":AF0_9" function="internal">
        <lane id=":AF0_9_0" index="0" speed="3.65" length="2.34" shape="505.60,0.00,0.74 506.00,-0.80,0.74 507.20,-1.60,0.74"/>
    </edge>
    <edge id=":AF0_6" function="internal">
        <lane id=":AF0_6_0" index="0" speed="100.00" length="14.40" shape="492.80,-1.60,0.65 507.20,-1.60,0.74"/>
    </edge>
    <edge id=":AF0_7" function="internal">
        <lane id=":AF0_7_0" index="0" speed="8.00" length="5.93" shape="492.80,-1.60,0.65 496.65,-1.05,0.68 498.40,-0.00,0.69"/>
    </edge>
    <edge id=":AF0_8" function="internal">
        <lane id=":AF0_8_0" index="0" speed="3.65" length="2.34" shape="492.80,-1.60,0.65 494.00,-0.80,0.65 494.40,0.00,0.65"/>
    </edge>
    <edge id=":AF0_10" function="internal">
        <lane id=":AF0_10_0" index="0" speed="8.00" length="8.26" shape="498.40,-0.00,0.69 499.40,0.60,0.70 501.05,3.35,0.72 501.60,7.20,0.74"/>
    </edge>
    <edge id=":AF0_11" function="internal">
        <lane id=":AF0_11_0" index="0" speed="3.65" length="2.34" shape="494.40,0.00,0.65 494.00,0.80,0.65 492.80,1.60,0.65"/>
    </edge>
    <edge id=":AF1_0" function="internal">
        <lane id=":AF1_0_0" index="0" speed="100.00" length="14.40" shape="507.20,101.60,5.29 492.80,101.60,5.29"/>
    </edge>
    <edge id=":AF1_1" function="internal">
        <lane id=":AF1_1_0" index="0" speed="8.00" length="5.93" shape="507.20,101.60,5.29 503.35,101.05,5.29 501.60,100.00,5.29"/>
    </edge>
    <edge id=":AF1_2" function="internal">
        <lane id=":AF1_2_0" index="0" speed="3.65" length="2.34" shape="507.20,101.60,5.29 506.00,100.80,5.29 505.60,100.00,5.29"/>
    </edge>
    <edge id=":AF1_9" function="internal">
        <lane id=":AF1_9_0" index="0" speed="8.00" length="8.26" shape="501.60,100.00,5.29 500.60,99.40,5.29 498.95,96.65,5.29 498.40,92.80,5.29"/>
    </edge>
    <edge id=":AF1_10" function="internal">
        <lane id=":AF1_10_0" index="0" speed="3.65" length="2.34" shape="505.60,100.00,5.29 506.00,99.20,5.29 507.20,98.40,5.29"/>
    </edge>
    <edge id=":AF1_3" function="internal">
        <lane id=":AF1_3_0" index="0" speed="6.51" length="9.03" shape="501.60,92.80,5.29 501.95,95.25,5.29 503.00,97.00,5.29 504.75,98.05,5.29 507.20,98.40,5.29"/>
    </edge>
    <edge id=":AF1_4" function="internal">
        <lane id=":AF1_4_0" index="0" speed="8.00" length="14.19" shape="501.60,92.80,5.29 501.05,96.65,5.29 499.40,99.40,5.29 496.65,101.05,5.29 492.80,101.60,5.29"/>
    </edge>
    <edge id=":AF1_5" function="internal">
        <lane id=":AF1_5_0" index="0" speed="3.65" length="4.67" shape="501.60,92.80,5.29 500.80,94.00,5.29 500.00,94.40,5.29 499.20,94.00,5.29 498.40,92.80,5.29"/>
    </edge>
    <edge id=":AF1_6" function="internal">
        <lane id=":AF1_6_0" index="0" speed="6.51" length="9.03" shape="492.80,98.40,5.29 495.25,98.05,5.29 497.00,97.00,5.29 498.05,95.25,5.29 498.40,92.80,5.29"/>
    </edge>
    <edge id=":AF1_7" function="internal">
        <lane id=":AF1_7_0" index="0" speed="100.00" length="14.40" shape="492.80,98.40,5.29 507.20,98.40,5.29"/>
    </edge>
    <edge id=":AF1_8" function="internal">
        <lane id=":AF1_8_0" index="0" speed="3.65" length="2.34" shape="492.80,98.40,5.29 494.00,99.20,5.29 494.40,100.00,5.29"/>
    </edge>
    <edge id=":AF1_11" function="internal">
        <lane id=":AF1_11_0" index="0" speed="3.65" length="2.34" shape="494.40,100.00,5.29 494.00,100.80,5.29 492.80,101.60,5.29"/>
    </edge>
    <edge id=":AG0_0" function="internal">
        <lane id=":AG0_0_0" index="0" speed="6.51" length="9.03" shape="598.40,7.20,-4.30 598.05,4.75,-4.30 597.00,3.00,-4.30 595.25,1.95,-4.30 592.80,1.60,-4.30"/>
    </edge>
    <edge id=":AG0_1" function="internal">
        <lane id=":AG0_1_0" index="0" speed="8.00" length="14.19" shape="598.40,7.20,-4.30 598.95,3.35,-4.30 600.60,0.60,-4.30 603.35,-1.05,-4.30 607.20,-1.60,-4.30"/>
    </edge>
    <edge id=":AG0_2" function="internal">
        <lane id=":AG0_2_0" index="0" speed="3.65" length="4.67" shape="598.40,7.20,-4.30 599.20,6.00,-4.30 600.00,5.60,-4.30 600.80,6.00,-4.30 601.60,7.20,-4.30"/>
    </edge>
    <edge id=":AG0_3" function="internal">
        <lane id=":AG0_3_0" index="0" speed="6.51" length="9.03" shape="607.20,1.60,-4.30 604.75,1.95,-4.30 603.00,3.00,-4.30 601.95,4.75,-4.30 601.60,7.20,-4.30"/>
    </edge>
    <edge id=":AG0_4" function="internal">
        <lane id=":AG0_4_0" index="0" speed="100.00" length="14.40" shape="607.20,1.60,-4.30 592.80,1.60,-4.30"/>
    </edge>
    <edge id=":AG0_5" function="internal">
        <lane id=":AG0_5_0" index="0" speed="3.65" length="2.34" shape="607.20,1.60,-4.30 606.00,0.80,-4.30 605.60,0.00,-4.30"/>
    </edge>
    <edge id=":AG0_9" function="internal">
        <lane id=":AG0_9_0" index="0" speed="3.65" length="2.34" shape="605.60,0.00,-4.30 606.00,-0.80,-4.30 607.20,-1.60,-4.30"/>
    </edge>
    <edge id=":AG0_6" function="internal">
        <lane id=":AG0_6_0" index="0" speed="100.00" length="14.40" shape="592.80,-1.60,-4.30 607.20,-1.60,-4.30"/>
    </edge>
    <edge id=":AG0_7" function="internal">
        <lane id=":AG0_7_0" index="0" speed="8.00" length="5.93" shape="592.80,-1.60,-4.30 596.65,-1.05,-4.30 598.40,0.00,-4.30"/>
    </edge>
    <edge id=":AG0_8" function="internal">
        <lane id=":AG0_8_0" index="0" speed="3.65" length="2.34" shape="592.80,-1.60,-4.30 594.00,-0.80,-4.30 594.40,0.00,-4.30"/>
    </edge>
    <edge id=":AG0_10" function="internal">
        <lane id=":AG0_10_0" index="0" speed="8.00" length="8.26" shape="598.40,0.00,-4.30 599.40,0.60,-4.30 601.05,3.35,-4.30 601.60,7.20,-4.30"/>
    </edge>
    <edge id=":AG0_11" function="internal">
        <lane id=":AG0_11_0" index="0" speed="3.65" length="2.34" shape="594.40,0.00,-4.30 594.00,0.80,-4.30 592.80,1.60,-4.30"/>
    </edge>
    <edge id=":AG1_0" function="internal">
        <lane id=":AG1_0_0" index="0" speed="100.00" length="14.40" shape="607.20,101.60,-1.30 592.80,101.60,-1.25"/>
    </edge>
    <edge id=":AG1_1" function="internal">
        <lane id=":AG1_1_0" index="0" speed="8.00" length="5.93" shape="607.20,101.60,-1.30 603.35,101.05,-1.29 601.60,100.00,-1.28"/>
    </edge>
    <edge id=":AG1_2" function="internal">
        <lane id=":AG1_2_0" index="0" speed="3.65" length="2.34" shape="607.20,101.60,-1.30 606.00,100.80,-1.30 605.60,100.00,-1.30"/>
    </edge>
    <edge id=":AG1_9" function="internal">
        <lane id=":AG1_9_0" index="0" speed="8.00" length="8.26" shape="601.60,100.00,-1.28 600.60,99.40,-1.28 598.95,96.65,-1.27 598.40,92.80,-1.25"/>
    </edge>
    <edge id=":AG1_10" function="internal">
        <lane id=":AG1_10_0" index="0" speed="3.65" length="2.34" shape="605.60,100.00,-1.30 606.00,99.20,-1.30 607.20,98.40,-1.30"/>
    </edge>
    <edge id=":AG1_3" function="internal">
        <lane id=":AG1_3_0" index="0" speed="6.51" length="9.03" shape="601.60,92.80,-1.25 601.95,95.25,-1.27 603.00,97.00,-1.28 604.75,98.05,-1.29 607.20,98.40,-1.30"/>
    </edge>
    <edge id=":AG1_4" function="internal">
        <lane id=":AG1_4_0" index="0" speed="8.00" length="14.19" shape="601.60,92.80,-1.25 601.05,96.65,-1.25 599.40,99.40,-1.25 596.65,101.05,-1.25 592.80,101.60,-1.25"/>
    </edge>
    <edge id=":AG1_5" function="internal">
        <lane id=":AG1_5_0" index="0" speed="3.65" length="4.67" shape="601.60,92.80,-1.25 600.80,94.00,-1.25 600.00,94.40,-1.25 599.20,94.00,-1.25 598.40,92.80,-1.25"/>
    </edge>
    <edge id=":AG1_6" function="internal">
        <lane id=":AG1_6_0" index="0" speed="6.51" length="9.03" shape="592.80,98.40,-1.25 595.25,98.05,-1.25 597.00,97.00,-1.25 598.05,95.25,-1.25 598.40,92.80,-1.25"/>
    </edge>
    <edge id=":AG1_7" function="internal">
        <lane id=":AG1_7_0" index="0" speed="100.00" length="14.40" shape="592.80,98.40,-1.25 607.20,98.40,-1.30"/>
    </edge>
    <edge id=":AG1_8" function="internal">