<?xml version="1.0" encoding="UTF-8"?>

<!-- generated on 07/22/20 22:23:39 by Eclipse SUMO netgenerate Version 1.5.0
<configuration xmlns:xsi="http://www.w3.org/2001/XMLSchema-instance" xsi:noNamespaceSchemaLocation="http://sumo.dlr.de/xsd/netgenerateConfiguration.xsd">

    <grid_network>
        <grid value="true"/>
        <grid.x-number value="20"/>
        <grid.y-number value="2"/>
    </grid_network>

    <output>
        <output-file value="4.net.xml"/>
    </output>

    <processing>
        <perturb-x value="23"/>
        <perturb-z value="100"/>
    </processing>

    <random_number>
        <seed value="9023093"/>
    </random_number>

</configuration>
-->

<net version="1.3" junctionCornerDetail="5" limitTurnSpeed="5.50" xmlns:xsi="http://www.w3.org/2001/XMLSchema-instance" xsi:noNamespaceSchemaLocation="http://sumo.dlr.de/xsd/net_file.xsd">

    <location netOffset="27.84,0.00" convBoundary="0.00,0.00,1904.56,100.00" origBoundary="-27.84,0.00,1876.71,100.00" projParameter="!"/>

    <edge id=":A0_0" function="internal">
        <lane id=":A0_0_0" index="0" speed="3.94" length="3.26" shape="32.02,1.60,-39.03 31.47,1.67,-39.70 31.04,1.89,-40.29 30.71,2.24,-40.88 30.48,2.75,-41.55"/>
    </edge>
    <edge id=":A0_1" function="internal">
        <lane id=":A0_1_0" index="0" speed="6.15" length="6.67" shape="27.41,1.84,-41.55 28.08,0.33,-40.90 29.07,-0.74,-40.33 30.39,-1.39,-39.76 32.02,-1.60,-39.12"/>
    </edge>
    <edge id=":A1_0" function="internal">
        <lane id=":A1_0_0" index="0" speed="6.09" length="10.04" shape="4.29,101.60,-74.91 1.59,101.21,-75.84 -0.08,100.06,-76.53 -0.71,98.13,-77.22 -0.32,95.44,-78.15"/>
    </edge>
    <edge id=":A1_1" function="internal">
        <lane id=":A1_1_0" index="0" speed="3.91" length="4.38" shape="2.75,96.35,-78.15 2.62,97.24,-77.28 2.83,97.89,-76.64 3.39,98.27,-75.99 4.29,98.40,-75.13"/>
    </edge>
    <edge id=":B0_0" function="internal">
        <lane id=":B0_0_0" index="0" speed="6.56" length="9.10" shape="170.72,1.60,45.48 168.27,1.95,45.48 166.52,3.02,45.48 165.45,4.78,45.48 165.07,7.26,45.48"/>
    </edge>
    <edge id=":B0_1" function="internal">
        <lane id=":B0_1_0" index="0" speed="13.89" length="14.40" shape="170.72,1.60,45.48 156.32,1.60,45.48"/>
    </edge>
    <edge id=":B0_2" function="internal">
        <lane id=":B0_2_0" index="0" speed="3.65" length="2.34" shape="170.72,1.60,45.48 169.52,0.80,45.48 169.12,0.00,45.48"/>
    </edge>
    <edge id=":B0_9" function="internal">
        <lane id=":B0_9_0" index="0" speed="3.65" length="2.34" shape="169.12,0.00,45.48 169.52,-0.80,45.48 170.72,-1.60,45.48"/>
    </edge>
    <edge id=":B0_3" function="internal">
        <lane id=":B0_3_0" index="0" speed="13.89" length="14.40" shape="156.32,-1.60,45.48 170.72,-1.60,45.48"/>
    </edge>
    <edge id=":B0_4" function="internal">
        <lane id=":B0_4_0" index="0" speed="7.98" length="5.93" shape="156.32,-1.60,45.48 160.19,-1.05,45.48 161.92,-0.00,45.48"/>
    </edge>
    <edge id=":B0_5" function="internal">
        <lane id=":B0_5_0" index="0" speed="3.65" length="2.34" shape="156.32,-1.60,45.48 157.52,-0.80,45.48 157.92,0.00,45.48"/>
    </edge>
    <edge id=":B0_10" function="internal">
        <lane id=":B0_10_0" index="0" speed="7.98" length="8.31" shape="161.92,-0.00,45.48 162.94,0.62,45.48 164.56,3.38,45.48 165.07,7.26,45.48"/>
    </edge>
    <edge id=":B0_11" function="internal">
        <lane id=":B0_11_0" index="0" speed="3.65" length="2.34" shape="157.92,0.00,45.48 157.52,0.80,45.48 156.32,1.60,45.48"/>
    </edge>
    <edge id=":B0_6" function="internal">
        <lane id=":B0_6_0" index="0" speed="6.48" length="9.03" shape="161.87,7.22,45.48 161.55,4.76,45.48 160.52,3.01,45.48 158.77,1.95,45.48 156.32,1.60,45.48"/>
    </edge>
    <edge id=":B0_7" function="internal">
        <lane id=":B0_7_0" index="0" speed="8.04" length="14.21" shape="161.87,7.22,45.48 162.46,3.36,45.48 164.14,0.61,45.48 166.89,-1.05,45.48 170.72,-1.60,45.48"/>
    </edge>
    <edge id=":B0_8" function="internal">
        <lane id=":B0_8_0" index="0" speed="3.65" length="4.67" shape="161.87,7.22,45.48 162.68,6.03,45.48 163.49,5.64,45.48 164.28,6.05,45.48 165.07,7.26,45.48"/>
    </edge>
    <edge id=":B1_0" function="internal">
        <lane id=":B1_0_0" index="0" speed="13.89" length="14.40" shape="169.52,101.60,95.70 155.12,101.60,95.70"/>
    </edge>
    <edge id=":B1_1" function="internal">
        <lane id=":B1_1_0" index="0" speed="7.98" length="5.93" shape="169.52,101.60,95.70 165.65,101.05,95.70 163.92,100.00,95.70"/>
    </edge>
    <edge id=":B1_2" function="internal">
        <lane id=":B1_2_0" index="0" speed="3.65" length="2.34" shape="169.52,101.60,95.70 168.32,100.80,95.70 167.92,100.00,95.70"/>
    </edge>
    <edge id=":B1_9" function="internal">
        <lane id=":B1_9_0" index="0" speed="7.98" length="8.31" shape="163.92,100.00,95.70 162.90,99.38,95.70 161.28,96.62,95.70 160.77,92.74,95.70"/>
    </edge>
    <edge id=":B1_10" function="internal">
        <lane id=":B1_10_0" index="0" speed="3.65" length="2.34" shape="167.92,100.00,95.70 168.32,99.20,95.70 169.52,98.40,95.70"/>
    </edge>
    <edge id=":B1_3" function="internal">
        <lane id=":B1_3_0" index="0" speed="6.48" length="9.03" shape="163.97,92.78,95.70 164.29,95.24,95.70 165.32,96.99,95.70 167.07,98.05,95.70 169.52,98.40,95.70"/>
    </edge>
    <edge id=":B1_4" function="internal">
        <lane id=":B1_4_0" index="0" speed="8.04" length="14.21" shape="163.97,92.78,95.70 163.38,96.64,95.70 161.70,99.39,95.70 158.95,101.05,95.70 155.12,101.60,95.70"/>
    </edge>
    <edge id=":B1_5" function="internal">
        <lane id=":B1_5_0" index="0" speed="3.65" length="4.67" shape="163.97,92.78,95.70 163.16,93.97,95.70 162.35,94.36,95.70 161.56,93.95,95.70 160.77,92.74,95.70"/>
    </edge>
    <edge id=":B1_6" function="internal">
        <lane id=":B1_6_0" index="0" speed="6.56" length="9.10" shape="155.12,98.40,95.70 157.57,98.05,95.70 159.32,96.98,95.70 160.39,95.22,95.70 160.77,92.74,95.70"/>
    </edge>
    <edge id=":B1_7" function="internal">
        <lane id=":B1_7_0" index="0" speed="13.89" length="14.40" shape="155.12,98.40,95.70 169.52,98.40,95.70"/>
    </edge>
    <edge id=":B1_8" function="internal">
        <lane id=":B1_8_0" index="0" speed="3.65" length="2.34" shape="155.12,98.40,95.70 156.32,99.20,95.70 156.72,100.00,95.70"/>
    </edge>
    <edge id=":B1_11" function="internal">
        <lane id=":B1_11_0" index="0" speed="3.65" length="2.34" shape="156.72,100.00,95.70 156.32,100.80,95.70 155.12,101.60,95.70"/>
    </edge>
    <edge id=":C0_0" function="internal">
        <lane id=":C0_0_0" index="0" speed="6.54" length="9.08" shape="214.24,7.25,91.26 213.86,4.78,91.26 212.80,3.01,91.26 211.04,1.95,91.26 208.60,1.60,91.26"/>
    </edge>
    <edge id=":C0_1" function="internal">
        <lane id=":C0_1_0" index="0" speed="7.98" length="14.23" shape="214.24,7.25,91.26 214.75,3.38,91.26 216.38,0.61,91.26 219.13,-1.05,91.26 223.00,-1.60,91.26"/>
    </edge>
    <edge id=":C0_2" function="internal">
        <lane id=":C0_2_0" index="0" speed="3.65" length="4.67" shape="214.24,7.25,91.26 215.03,6.04,91.26 215.82,5.63,91.26 216.63,6.02,91.26 217.44,7.22,91.26"/>
    </edge>
    <edge id=":C0_3" function="internal">
        <lane id=":C0_3_0" index="0" speed="6.49" length="9.03" shape="223.00,1.60,91.26 220.54,1.95,91.26 218.80,3.00,91.26 217.76,4.76,91.26 217.44,7.22,91.26"/>
    </edge>
    <edge id=":C0_4" function="internal">
        <lane id=":C0_4_0" index="0" speed="13.89" length="14.40" shape="223.00,1.60,91.26 208.60,1.60,91.26"/>
    </edge>
    <edge id=":C0_5" function="internal">
        <lane id=":C0_5_0" index="0" speed="3.65" length="2.34" shape="223.00,1.60,91.26 221.80,0.80,91.26 221.40,0.00,91.26"/>
    </edge>
    <edge id=":C0_9" function="internal">
        <lane id=":C0_9_0" index="0" speed="3.65" length="2.34" shape="221.40,0.00,91.26 221.80,-0.80,91.26 223.00,-1.60,91.26"/>
    </edge>
    <edge id=":C0_6" function="internal">
        <lane id=":C0_6_0" index="0" speed="13.89" length="14.40" shape="208.60,-1.60,91.26 223.00,-1.60,91.26"/>
    </edge>
    <edge id=":C0_7" function="internal">
        <lane id=":C0_7_0" index="0" speed="8.03" length="5.91" shape="208.60,-1.60,91.26 212.43,-1.05,91.26 214.18,-0.00,91.26"/>
    </edge>
    <edge id=":C0_8" function="internal">
        <lane id=":C0_8_0" index="0" speed="3.65" length="2.34" shape="208.60,-1.60,91.26 209.80,-0.80,91.26 210.20,0.00,91.26"/>
    </edge>
    <edge id=":C0_10" function="internal">
        <lane id=":C0_10_0" index="0" speed="8.03" length="8.29" shape="214.18,-0.00,91.26 215.18,0.60,91.26 216.85,3.36,91.26 217.44,7.22,91.26"/>
    </edge>
    <edge id=":C0_11" function="internal">
        <lane id=":C0_11_0" index="0" speed="3.65" length="2.34" shape="210.20,0.00,91.26 209.80,0.80,91.26 208.60,1.60,91.26"/>
    </edge>
    <edge id=":C1_0" function="internal">
        <lane id=":C1_0_0" index="0" speed="13.89" length="14.40" shape="223.89,101.60,85.67 209.49,101.60,85.67"/>
    </edge>
    <edge id=":C1_1" function="internal">
        <lane id=":C1_1_0" index="0" speed="8.03" length="5.91" shape="223.89,101.60,85.67 220.06,101.05,85.67 218.31,100.00,85.67"/>
    </edge>
    <edge id=":C1_2" function="internal">
        <lane id=":C1_2_0" index="0" speed="3.65" length="2.34" shape="223.89,101.60,85.67 222.69,100.80,85.67 222.29,100.00,85.67"/>
    </edge>
    <edge id=":C1_9" function="internal">
        <lane id=":C1_9_0" index="0" speed="8.03" length="8.29" shape="218.31,100.00,85.67 217.30,99.40,85.67 215.64,96.64,85.67 215.05,92.78,85.67"/>
    </edge>
    <edge id=":C1_10" function="internal">
        <lane id=":C1_10_0" index="0" speed="3.65" length="2.34" shape="222.29,100.00,85.67 222.69,99.20,85.67 223.89,98.40,85.67"/>
    </edge>
    <edge id=":C1_3" function="internal">
        <lane id=":C1_3_0" index="0" speed="6.54" length="9.08" shape="218.25,92.75,85.67 218.63,95.22,85.67 219.69,96.99,85.67 221.44,98.05,85.67 223.89,98.40,85.67"/>
    </edge>
    <edge id=":C1_4" function="internal">
        <lane id=":C1_4_0" index="0" speed="7.98" length="14.23" shape="218.25,92.75,85.67 217.74,96.62,85.67 216.10,99.39,85.67 213.36,101.05,85.67 209.49,101.60,85.67"/>
    </edge>
    <edge id=":C1_5" function="internal">
        <lane id=":C1_5_0" index="0" speed="3.65" length="4.67" shape="218.25,92.75,85.67 217.46,93.96,85.67 216.67,94.37,85.67 215.86,93.98,85.67 215.05,92.78,85.67"/>
    </edge>
    <edge id=":C1_6" function="internal">
        <lane id=":C1_6_0" index="0" speed="6.49" length="9.03" shape="209.49,98.40,85.67 211.94,98.05,85.67 213.69,97.00,85.67 214.73,95.24,85.67 215.05,92.78,85.67"/>
    </edge>
    <edge id=":C1_7" function="internal">
        <lane id=":C1_7_0" index="0" speed="13.89" length="14.40" shape="209.49,98.40,85.67 223.89,98.40,85.67"/>
    </edge>
    <edge id=":C1_8" function="internal">
        <lane id=":C1_8_0" index="0" speed="3.65" length="2.34" shape="209.49,98.40,85.67 210.69,99.20,85.67 211.09,100.00,85.67"/>
    </edge>
    <edge id=":C1_11" function="internal">
        <lane id=":C1_11_0" index="0" speed="3.65" length="2.34" shape="211.09,100.00,85.67 210.69,100.80,85.67 209.49,101.60,85.67"/>
    </edge>
    <edge id=":D0_0" function="internal">
        <lane id=":D0_0_0" index="0" speed="7.51" length="10.28" shape="350.50,1.60,111.84 348.10,2.01,111.84 346.17,3.24,111.84 344.71,5.29,111.84 343.73,8.16,111.84"/>
    </edge>
    <edge id=":D0_1" function="internal">
        <lane id=":D0_1_0" index="0" speed="13.89" length="14.56" shape="350.50,1.60,111.84 335.94,1.60,111.84"/>
    </edge>
    <edge id=":D0_2" function="internal">
        <lane id=":D0_2_0" index="0" speed="3.65" length="2.34" shape="350.50,1.60,111.84 349.30,0.80,111.84 348.90,0.00,111.84"/>
    </edge>
    <edge id=":D0_9" function="internal">
        <lane id=":D0_9_0" index="0" speed="3.65" length="2.34" shape="348.90,0.00,111.84 349.30,-0.80,111.84 350.50,-1.60,111.84"/>
    </edge>
    <edge id=":D0_3" function="internal">
        <lane id=":D0_3_0" index="0" speed="13.89" length="14.56" shape="335.94,-1.60,111.84 350.50,-1.60,111.84"/>
    </edge>
    <edge id=":D0_4" function="internal">
        <lane id=":D0_4_0" index="0" speed="7.66" length="6.06" shape="335.94,-1.60,111.84 340.18,-0.99,111.84 341.64,0.00,111.84"/>
    </edge>
    <edge id=":D0_5" function="internal">
        <lane id=":D0_5_0" index="0" speed="3.65" length="2.34" shape="335.94,-1.60,111.84 337.14,-0.80,111.84 337.54,0.00,111.84"/>
    </edge>
    <edge id=":D0_10" function="internal">
        <lane id=":D0_10_0" index="0" speed="7.66" length="9.06" shape="341.64,0.00,111.84 342.89,0.84,111.84 344.07,3.89,111.84 343.73,8.16,111.84"/>
    </edge>
    <edge id=":D0_11" function="internal">
        <lane id=":D0_11_0" index="0" speed="3.65" length="2.34" shape="337.54,0.00,111.84 337.14,0.80,111.84 335.94,1.60,111.84"/>
    </edge>
    <edge id=":D0_6" function="internal">
        <lane id=":D0_6_0" index="0" speed="6.08" length="9.07" shape="340.61,7.46,111.84 340.82,4.89,111.84 340.11,3.06,111.84 338.48,1.97,111.84 335.94,1.60,111.84"/>
    </edge>
    <edge id=":D0_7" function="internal">
        <lane id=":D0_7_0" index="0" speed="8.86" length="14.63" shape="340.61,7.46,111.84 342.00,3.49,111.84 344.11,0.66,111.84 346.94,-1.03,111.84 350.50,-1.60,111.84"/>
    </edge>
    <edge id=":D0_8" function="internal">
        <lane id=":D0_8_0" index="0" speed="3.65" length="4.67" shape="340.61,7.46,111.84 341.66,6.46,111.84 342.52,6.25,111.84 343.22,6.82,111.84 343.73,8.16,111.84"/>
    </edge>
    <edge id=":D1_0" function="internal">
        <lane id=":D1_0_0" index="0" speed="13.89" length="14.56" shape="329.23,101.60,82.50 314.67,101.60,82.70"/>
    </edge>
    <edge id=":D1_1" function="internal">
        <lane id=":D1_1_0" index="0" speed="7.66" length="6.06" shape="329.23,101.60,82.50 324.99,100.99,82.50 323.52,100.00,82.50"/>
    </edge>
    <edge id=":D1_2" function="internal">
        <lane id=":D1_2_0" index="0" speed="3.65" length="2.34" shape="329.23,101.60,82.50 328.03,100.80,82.50 327.63,100.00,82.50"/>
    </edge>
    <edge id=":D1_9" function="internal">
        <lane id=":D1_9_0" index="0" speed="7.66" length="9.06" shape="323.52,100.00,82.50 322.28,99.16,82.50 321.09,96.11,82.50 321.44,91.84,82.50"/>
    </edge>
    <edge id=":D1_10" function="internal">
        <lane id=":D1_10_0" index="0" speed="3.65" length="2.34" shape="327.63,100.00,82.50 328.03,99.20,82.50 329.23,98.40,82.50"/>
    </edge>
    <edge id=":D1_3" function="internal">
        <lane id=":D1_3_0" index="0" speed="6.08" length="9.07" shape="324.56,92.54,82.50 324.35,95.11,82.50 325.06,96.94,82.50 326.69,98.03,82.50 329.23,98.40,82.50"/>
    </edge>
    <edge id=":D1_4" function="internal">
        <lane id=":D1_4_0" index="0" speed="8.86" length="14.63" shape="324.56,92.54,82.50 323.17,96.51,82.56 321.06,99.34,82.60 318.22,101.03,82.65 314.67,101.60,82.70"/>
    </edge>
    <edge id=":D1_5" function="internal">
        <lane id=":D1_5_0" index="0" speed="3.65" length="4.67" shape="324.56,92.54,82.50 323.51,93.54,82.50 322.64,93.75,82.50 321.95,93.18,82.50 321.44,91.84,82.50"/>
    </edge>
    <edge id=":D1_6" function="internal">
        <lane id=":D1_6_0" index="0" speed="7.51" length="10.28" shape="314.67,98.40,82.71 317.07,97.99,82.66 319.00,96.76,82.61 320.46,94.71,82.56 321.44,91.84,82.50"/>
    </edge>
    <edge id=":D1_7" function="internal">
        <lane id=":D1_7_0" index="0" speed="13.89" length="14.56" shape="314.67,98.40,82.71 329.23,98.40,82.50"/>
    </edge>
    <edge id=":D1_8" function="internal">
        <lane id=":D1_8_0" index="0" speed="3.65" length="2.34" shape="314.67,98.40,82.71 315.87,99.20,82.71 316.27,100.00,82.71"/>
    </edge>
    <edge id=":D1_11" function="internal">
        <lane id=":D1_11_0" index="0" speed="3.65" length="2.34" shape="316.27,100.00,82.71 315.87,100.80,82.70 314.67,101.60,82.70"/>
    </edge>
    <edge id=":E0_0" function="internal">
        <lane id=":E0_0_0" index="0" speed="6.61" length="9.17" shape="395.33,7.33,-181.49 394.92,4.82,-181.49 393.83,3.03,-181.49 392.06,1.96,-181.49 389.62,1.60,-181.49"/>
    </edge>
    <edge id=":E0_1" function="internal">
        <lane id=":E0_1_0" index="0" speed="7.95" length="14.29" shape="395.33,7.33,-181.49 395.78,3.42,-181.49 397.38,0.63,-181.49 400.13,-1.04,-181.49 404.02,-1.60,-181.49"/>
    </edge>
    <edge id=":E0_2" function="internal">
        <lane id=":E0_2_0" index="0" speed="3.65" length="4.67" shape="395.33,7.33,-181.49 396.10,6.11,-181.49 396.89,5.68,-181.49 397.70,6.06,-181.49 398.53,7.24,-181.49"/>
    </edge>
    <edge id=":E0_3" function="internal">
        <lane id=":E0_3_0" index="0" speed="6.45" length="9.03" shape="404.02,1.60,-181.49 401.56,1.95,-181.49 399.83,3.01,-181.49 398.82,4.77,-181.49 398.53,7.24,-181.49"/>
    </edge>
    <edge id=":E0_4" function="internal">
        <lane id=":E0_4_0" index="0" speed="13.89" length="14.40" shape="404.02,1.60,-181.49 389.62,1.60,-181.49"/>
    </edge>
    <edge id=":E0_5" function="internal">
        <lane id=":E0_5_0" index="0" speed="3.65" length="2.34" shape="404.02,1.60,-181.49 402.82,0.80,-181.49 402.42,0.00,-181.49"/>
    </edge>
    <edge id=":E0_9" function="internal">
        <lane id=":E0_9_0" index="0" speed="3.65" length="2.34" shape="402.42,0.00,-181.49 402.82,-0.80,-181.49 404.02,-1.60,-181.49"/>
    </edge>
    <edge id=":E0_6" function="internal">
        <lane id=":E0_6_0" index="0" speed="13.89" length="14.40" shape="389.62,-1.60,-181.49 404.02,-1.60,-181.49"/>
    </edge>
    <edge id=":E0_7" function="internal">
        <lane id=":E0_7_0" index="0" speed="8.09" length="5.88" shape="389.62,-1.60,-181.49 393.43,-1.05,-181.49 395.17,0.00,-181.49"/>
    </edge>
    <edge id=":E0_8" function="internal">
        <lane id=":E0_8_0" index="0" speed="3.65" length="2.34" shape="389.62,-1.60,-181.49 390.82,-0.80,-181.49 391.22,0.00,-181.49"/>
    </edge>
    <edge id=":E0_10" function="internal">
        <lane id=":E0_10_0" index="0" speed="8.09" length="8.35" shape="395.17,0.00,-181.49 396.18,0.61,-181.49 397.88,3.37,-181.49 398.53,7.24,-181.49"/>
    </edge>
    <edge id=":E0_11" function="internal">
        <lane id=":E0_11_0" index="0" speed="3.65" length="2.34" shape="391.22,0.00,-181.49 390.82,0.80,-181.49 389.62,1.60,-181.49"/>
    </edge>
    <edge id=":E1_0" function="internal">
        <lane id=":E1_0_0" index="0" speed="13.89" length="14.40" shape="406.51,101.60,-30.16 392.11,101.60,-30.16"/>
    </edge>
    <edge id=":E1_1" function="internal">
        <lane id=":E1_1_0" index="0" speed="8.09" length="5.88" shape="406.51,101.60,-30.16 402.70,101.05,-30.16 400.96,100.00,-30.16"/>
    </edge>
    <edge id=":E1_2" function="internal">
        <lane id=":E1_2_0" index="0" speed="3.65" length="2.34" shape="406.51,101.60,-30.16 405.31,100.80,-30.16 404.91,100.00,-30.16"/>
    </edge>
    <edge id=":E1_9" function="internal">
        <lane id=":E1_9_0" index="0" speed="8.09" length="8.35" shape="400.96,100.00,-30.16 399.95,99.39,-30.16 398.25,96.63,-30.16 397.60,92.76,-30.16"/>
    </edge>
    <edge id=":E1_10" function="internal">
        <lane id=":E1_10_0" index="0" speed="3.65" length="2.34" shape="404.91,100.00,-30.16 405.31,99.20,-30.16 406.51,98.40,-30.16"/>
    </edge>
    <edge id=":E1_3" function="internal">
        <lane id=":E1_3_0" index="0" speed="6.61" length="9.17" shape="400.80,92.67,-30.16 401.22,95.18,-30.16 402.31,96.97,-30.16 404.07,98.04,-30.16 406.51,98.40,-30.16"/>
    </edge>
    <edge id=":E1_4" function="internal">
        <lane id=":E1_4_0" index="0" speed="7.95" length="14.29" shape="400.80,92.67,-30.16 400.35,96.58,-30.16 398.75,99.37,-30.16 396.00,101.04,-30.16 392.11,101.60,-30.16"/>
    </edge>
    <edge id=":E1_5" function="internal">
        <lane id=":E1_5_0" index="0" speed="3.65" length="4.67" shape="400.80,92.67,-30.16 400.04,93.89,-30.16 399.25,94.32,-30.16 398.44,93.94,-30.16 397.60,92.76,-30.16"/>
    </edge>
    <edge id=":E1_6" function="internal">
        <lane id=":E1_6_0" index="0" speed="6.45" length="9.03" shape="392.11,98.40,-30.16 394.57,98.05,-30.16 396.31,96.99,-30.16 397.32,95.23,-30.16 397.60,92.76,-30.16"/>
    </edge>
    <edge id=":E1_7" function="internal">
        <lane id=":E1_7_0" index="0" speed="13.89" length="14.40" shape="392.11,98.40,-30.16 406.51,98.40,-30.16"/>
    </edge>
    <edge id=":E1_8" function="internal">
        <lane id=":E1_8_0" index="0" speed="3.65" length="2.34" shape="392.11,98.40,-30.16 393.31,99.20,-30.16 393.71,100.00,-30.16"/>
    </edge>
    <edge id=":E1_11" function="internal">
        <lane id=":E1_11_0" index="0" speed="3.65" length="2.34" shape="393.71,100.00,-30.16 393.31,100.80,-30.16 392.11,101.60,-30.16"/>
    </edge>
    <edge id=":F0_0" function="internal">
        <lane id=":F0_0_0" index="0" speed="6.56" length="9.11" shape="490.25,1.60,-150.92 487.81,1.95,-150.92 486.05,3.02,-150.92 484.98,4.79,-150.92 484.59,7.27,-150.92"/>
    </edge>
    <edge id=":F0_1" function="internal">
        <lane id=":F0_1_0" index="0" speed="13.89" length="14.40" shape="490.25,1.60,-150.92 475.85,1.60,-150.92"/>
    </edge>
    <edge id=":F0_2" function="internal">
        <lane id=":F0_2_0" index="0" speed="3.65" length="2.34" shape="490.25,1.60,-150.92 489.05,0.80,-150.92 488.65,0.00,-150.92"/>
    </edge>
    <edge id=":F0_9" function="internal">
        <lane id=":F0_9_0" index="0" speed="3.65" length="2.34" shape="488.65,0.00,-150.92 489.05,-0.80,-150.92 490.25,-1.60,-150.92"/>
    </edge>
    <edge id=":F0_3" function="internal">
        <lane id=":F0_3_0" index="0" speed="13.89" length="14.40" shape="475.85,-1.60,-150.92 490.25,-1.60,-150.92"/>
    </edge>
    <edge id=":F0_4" function="internal">
        <lane id=":F0_4_0" index="0" speed="7.98" length="5.93" shape="475.85,-1.60,-150.92 479.73,-1.05,-150.92 481.45,-0.00,-150.92"/>
    </edge>
    <edge id=":F0_5" function="internal">
        <lane id=":F0_5_0" index="0" speed="3.65" length="2.34" shape="475.85,-1.60,-150.92 477.05,-0.80,-150.92 477.45,0.00,-150.92"/>
    </edge>
    <edge id=":F0_10" function="internal">
        <lane id=":F0_10_0" index="0" speed="7.98" length="8.32" shape="481.45,-0.00,-150.92 482.47,0.62,-150.92 484.10,3.39,-150.92 484.59,7.27,-150.92"/>
    </edge>
    <edge id=":F0_11" function="internal">
        <lane id=":F0_11_0" index="0" speed="3.65" length="2.34" shape="477.45,0.00,-150.92 477.05,0.80,-150.92 475.85,1.60,-150.92"/>
    </edge>
    <edge id=":F0_6" function="internal">
        <lane id=":F0_6_0" index="0" speed="6.48" length="9.03" shape="481.39,7.22,-150.92 481.08,4.76,-150.92 480.05,3.01,-150.92 478.31,1.95,-150.92 475.85,1.60,-150.92"/>
    </edge>
    <edge id=":F0_7" function="internal">
        <lane id=":F0_7_0" index="0" speed="8.05" length="14.21" shape="481.39,7.22,-150.92 482.00,3.36,-150.92 483.67,0.61,-150.92 486.43,-1.05,-150.92 490.25,-1.60,-150.92"/>
    </edge>
    <edge id=":F0_8" function="internal">
        <lane id=":F0_8_0" index="0" speed="3.65" length="4.67" shape="481.39,7.22,-150.92 482.21,6.03,-150.92 483.02,5.65,-150.92 483.81,6.06,-150.92 484.59,7.27,-150.92"/>
    </edge>
    <edge id=":F1_0" function="internal">
        <lane id=":F1_0_0" index="0" speed="13.89" length="14.40" shape="488.88,101.60,66.25 474.48,101.60,66.25"/>
    </edge>
    <edge id=":F1_1" function="internal">
        <lane id=":F1_1_0" index="0" speed="7.98" length="5.93" shape="488.88,101.60,66.25 485.01,101.05,66.25 483.28,100.00,66.25"/>
    </edge>
    <edge id=":F1_2" function="internal">
        <lane id=":F1_2_0" index="0" speed="3.65" length="2.34" shape="488.88,101.60,66.25 487.68,100.80,66.25 487.28,100.00,66.25"/>
    </edge>
    <edge id=":F1_9" function="internal">
        <lane id=":F1_9_0" index="0" speed="7.98" length="8.32" shape="483.28,100.00,66.25 482.26,99.38,66.25 480.64,96.61,66.25 480.14,92.73,66.25"/>
    </edge>
    <edge id=":F1_10" function="internal">
        <lane id=":F1_10_0" index="0" speed="3.65" length="2.34" shape="487.28,100.00,66.25 487.68,99.20,66.25 488.88,98.40,66.25"/>
    </edge>
    <edge id=":F1_3" function="internal">
        <lane id=":F1_3_0" index="0" speed="6.48" length="9.03" shape="483.34,92.78,66.25 483.65,95.24,66.25 484.68,96.99,66.25 486.42,98.05,66.25 488.88,98.40,66.25"/>
    </edge>
    <edge id=":F1_4" function="internal">
        <lane id=":F1_4_0" index="0" speed="8.05" length="14.21" shape="483.34,92.78,66.25 482.74,96.64,66.25 481.06,99.39,66.25 478.31,101.05,66.25 474.48,101.60,66.25"/>
    </edge>
    <edge id=":F1_5" function="internal">
        <lane id=":F1_5_0" index="0" speed="3.65" length="4.67" shape="483.34,92.78,66.25 482.52,93.97,66.25 481.71,94.35,66.25 480.92,93.94,66.25 480.14,92.73,66.25"/>
    </edge>
    <edge id=":F1_6" function="internal">
        <lane id=":F1_6_0" index="0" speed="6.56" length="9.11" shape="474.48,98.40,66.25 476.92,98.05,66.25 478.68,96.98,66.25 479.75,95.21,66.25 480.14,92.73,66.25"/>
    </edge>
    <edge id=":F1_7" function="internal">
        <lane id=":F1_7_0" index="0" speed="13.89" length="14.40" shape="474.48,98.40,66.25 488.88,98.40,66.25"/>
    </edge>
    <edge id=":F1_8" function="internal">
        <lane id=":F1_8_0" index="0" speed="3.65" length="2.34" shape="474.48,98.40,66.25 475.68,99.20,66.25 476.08,100.00,66.25"/>
    </edge>
    <edge id=":F1_11" function="internal">
        <lane id=":F1_11_0" index="0" speed="3.65" length="2.34" shape="476.08,100.00,66.25 475.68,100.80,66.25 474.48,101.60,66.25"/>
    </edge>
    <edge id=":G0_0" function="internal">
        <lane id=":G0_0_0" index="0" speed="7.57" length="10.34" shape="609.19,8.20,-31.05 608.17,5.32,-31.06 606.69,3.25,-31.06 604.75,2.01,-31.07 602.35,1.60,-31.07"/>
    </edge>
    <edge id=":G0_1" function="internal">
        <lane id=":G0_1_0" index="0" speed="7.65" length="15.17" shape="609.19,8.20,-31.05 608.79,3.92,-31.06 609.95,0.85,-31.06 612.66,-0.99,-31.07 616.93,-1.60,-31.07"/>
    </edge>
    <edge id=":G0_2" function="internal">
        <lane id=":G0_2_0" index="0" speed="3.65" length="4.67" shape="609.19,8.20,-31.05 609.69,6.85,-31.05 610.37,6.28,-31.05 611.24,6.48,-31.05 612.30,7.46,-31.05"/>
    </edge>
    <edge id=":G0_3" function="internal">
        <lane id=":G0_3_0" index="0" speed="6.06" length="9.07" shape="616.93,1.60,-31.07 614.38,1.97,-31.07 612.76,3.07,-31.06 612.07,4.90,-31.06 612.30,7.46,-31.05"/>
    </edge>
    <edge id=":G0_4" function="internal">
        <lane id=":G0_4_0" index="0" speed="13.89" length="14.58" shape="616.93,1.60,-31.07 602.35,1.60,-31.07"/>
    </edge>
    <edge id=":G0_5" function="internal">
        <lane id=":G0_5_0" index="0" speed="3.65" length="2.34" shape="616.93,1.60,-31.07 615.73,0.80,-31.07 615.33,0.00,-31.07"/>
    </edge>
    <edge id=":G0_9" function="internal">
        <lane id=":G0_9_0" index="0" speed="3.65" length="2.34" shape="615.33,0.00,-31.07 615.73,-0.80,-31.07 616.93,-1.60,-31.07"/>
    </edge>
    <edge id=":G0_6" function="internal">
        <lane id=":G0_6_0" index="0" speed="13.89" length="14.58" shape="602.35,-1.60,-31.07 616.93,-1.60,-31.07"/>
    </edge>
    <edge id=":G0_7" function="internal">
        <lane id=":G0_7_0" index="0" speed="8.91" length="5.60" shape="602.35,-1.60,-31.07 605.89,-1.03,-31.07 607.62,-0.00,-31.06"/>
    </edge>
    <edge id=":G0_8" function="internal">
        <lane id=":G0_8_0" index="0" speed="3.65" length="2.34" shape="602.35,-1.60,-31.07 603.55,-0.80,-31.07 603.95,0.00,-31.07"/>
    </edge>
    <edge id=":G0_10" function="internal">
        <lane id=":G0_10_0" index="0" speed="8.91" length="9.06" shape="607.62,-0.00,-31.06 608.73,0.67,-31.06 610.87,3.50,-31.06 612.30,7.46,-31.05"/>
    </edge>
    <edge id=":G0_11" function="internal">
        <lane id=":G0_11_0" index="0" speed="3.65" length="2.34" shape="603.95,0.00,-31.07 603.55,0.80,-31.07 602.35,1.60,-31.07"/>
    </edge>
    <edge id=":G1_0" function="internal">
        <lane id=":G1_0_0" index="0" speed="13.89" length="18.53" shape="643.21,101.60,-30.86 624.68,101.60,-30.86"/>
    </edge>
    <edge id=":G1_1" function="internal">
        <lane id=":G1_1_0" index="0" speed="9.84" length="7.98" shape="643.21,101.60,-30.86 637.94,101.03,-30.86 635.46,100.00,-30.87"/>
    </edge>
    <edge id=":G1_2" function="internal">
        <lane id=":G1_2_0" index="0" speed="3.65" length="2.34" shape="643.21,101.60,-30.86 642.01,100.80,-30.86 641.61,100.00,-30.86"/>
    </edge>
    <edge id=":G1_9" function="internal">
        <lane id=":G1_9_0" index="0" speed="9.84" length="10.07" shape="635.46,100.00,-30.87 633.87,99.33,-30.87 630.99,96.50,-30.87 629.31,92.54,-30.88"/>
    </edge>
    <edge id=":G1_10" function="internal">
        <lane id=":G1_10_0" index="0" speed="3.65" length="2.34" shape="641.61,100.00,-30.86 642.01,99.20,-30.86 643.21,98.40,-30.86"/>
    </edge>
    <edge id=":G1_3" function="internal">
        <lane id=":G1_3_0" index="0" speed="8.64" length="13.74" shape="632.43,91.80,-30.88 633.69,94.68,-30.87 635.91,96.75,-30.87 639.08,97.99,-30.86 643.21,98.40,-30.86"/>
    </edge>
    <edge id=":G1_4" function="internal">
        <lane id=":G1_4_0" index="0" speed="7.65" length="15.17" shape="632.43,91.80,-30.88 632.82,96.08,-30.87 631.66,99.15,-30.87 628.95,100.99,-30.86 624.68,101.60,-30.86"/>
    </edge>
    <edge id=":G1_5" function="internal">
        <lane id=":G1_5_0" index="0" speed="3.65" length="4.67" shape="632.43,91.80,-30.88 631.93,93.15,-30.88 631.24,93.72,-30.88 630.37,93.52,-30.88 629.31,92.54,-30.88"/>
    </edge>
    <edge id=":G1_6" function="internal">
        <lane id=":G1_6_0" index="0" speed="6.06" length="9.07" shape="624.68,98.40,-30.86 627.23,98.03,-30.86 628.85,96.93,-30.87 629.55,95.10,-30.87 629.31,92.54,-30.88"/>
    </edge>
    <edge id=":G1_7" function="internal">