<?xml version="1.0" encoding="UTF-8"?>

<!-- generated on 07/22/20 21:49:23 by Eclipse SUMO netgenerate Version 1.5.0
<configuration xmlns:xsi="http://www.w3.org/2001/XMLSchema-instance" xsi:noNamespaceSchemaLocation="http://sumo.dlr.de/xsd/netgenerateConfiguration.xsd">

    <grid_network>
        <grid value="true"/>
        <grid.x-number value="20"/>
        <grid.y-number value="2"/>
    </grid_network>

    <output>
        <output-file value="4.net.xml"/>
    </output>

    <processing>
        <perturb-x value="40"/>
        <perturb-z value="100"/>
    </processing>

    <random_number>
        <seed value="97432765"/>
    </random_number>

</configuration>
-->

<net version="1.3" junctionCornerDetail="5" limitTurnSpeed="5.50" xmlns:xsi="http://www.w3.org/2001/XMLSchema-instance" xsi:noNamespaceSchemaLocation="http://sumo.dlr.de/xsd/net_file.xsd">

    <location netOffset="36.98,0.00" convBoundary="0.00,0.00,1941.63,100.00" origBoundary="-36.98,0.00,1904.65,100.00" projParameter="!"/>

    <edge id=":A0_0" function="internal">
        <lane id=":A0_0_0" index="0" speed="6.57" length="15.10" shape="5.01,6.74,37.90 1.79,3.09,37.57 1.25,0.49,37.40 3.41,-1.08,37.22 8.25,-1.60,36.90"/>
    </edge>
    <edge id=":A0_1" function="internal">
        <lane id=":A0_1_0" index="0" speed="4.16" length="5.13" shape="8.25,1.60,36.85 6.64,1.77,37.19 5.92,2.30,37.37 6.10,3.16,37.56 7.17,4.38,37.90"/>
    </edge>
    <edge id=":A1_0" function="internal">
        <lane id=":A1_0_0" index="0" speed="6.51" length="54.77" shape="110.58,101.60,-6.80 107.52,100.34,47.86"/>
    </edge>
    <edge id=":A1_1" function="internal">
        <lane id=":A1_1_0" index="0" speed="4.01" length="45.70" shape="109.68,97.98,47.86 110.60,98.40,2.18"/>
    </edge>
    <edge id=":B0_0" function="internal">
        <lane id=":B0_0_0" index="0" speed="10.45" length="13.20" shape="50.38,9.24,35.09 47.72,5.90,35.09 45.12,3.51,35.09 42.60,2.08,35.09 40.15,1.60,35.09"/>
    </edge>
    <edge id=":B0_1" function="internal">
        <lane id=":B0_1_0" index="0" speed="7.38" length="17.52" shape="50.38,9.24,35.09 47.86,4.50,35.09 47.95,1.11,35.09 50.66,-0.92,35.09 55.99,-1.60,35.09"/>
    </edge>
    <edge id=":B0_2" function="internal">
        <lane id=":B0_2_0" index="0" speed="3.65" length="4.67" shape="50.38,9.24,35.09 50.34,7.80,35.09 50.76,7.01,35.09 51.65,6.87,35.09 52.99,7.39,35.09"/>
    </edge>
    <edge id=":B0_3" function="internal">
        <lane id=":B0_3_0" index="0" speed="5.58" length="9.36" shape="55.99,1.60,35.09 53.14,1.96,35.09 51.69,3.05,35.09 51.65,4.86,35.09 52.99,7.39,35.09"/>
    </edge>
    <edge id=":B0_4" function="internal">
        <lane id=":B0_4_0" index="0" speed="13.89" length="15.84" shape="55.99,1.60,35.09 40.15,1.60,35.09"/>
    </edge>
    <edge id=":B0_5" function="internal">
        <lane id=":B0_5_0" index="0" speed="3.65" length="2.34" shape="55.99,1.60,35.09 54.79,0.80,35.09 54.39,0.00,35.09"/>
    </edge>
    <edge id=":B0_9" function="internal">
        <lane id=":B0_9_0" index="0" speed="3.65" length="2.34" shape="54.39,0.00,35.09 54.79,-0.80,35.09 55.99,-1.60,35.09"/>
    </edge>
    <edge id=":B0_6" function="internal">
        <lane id=":B0_6_0" index="0" speed="13.89" length="15.84" shape="40.15,-1.60,35.09 55.99,-1.60,35.09"/>
    </edge>
    <edge id=":B0_7" function="internal">
        <lane id=":B0_7_0" index="0" speed="11.54" length="5.52" shape="40.15,-1.60,35.09 43.38,-1.04,35.09 45.37,-0.00,35.09"/>
    </edge>
    <edge id=":B0_8" function="internal">
        <lane id=":B0_8_0" index="0" speed="3.65" length="2.34" shape="40.15,-1.60,35.09 41.35,-0.80,35.09 41.75,0.00,35.09"/>
    </edge>
    <edge id=":B0_10" function="internal">
        <lane id=":B0_10_0" index="0" speed="11.54" length="10.72" shape="45.37,-0.00,35.09 46.60,0.65,35.09 49.81,3.46,35.09 52.99,7.39,35.09"/>
    </edge>
    <edge id=":B0_11" function="internal">
        <lane id=":B0_11_0" index="0" speed="3.65" length="2.34" shape="41.75,0.00,35.09 41.35,0.80,35.09 40.15,1.60,35.09"/>
    </edge>
    <edge id=":B1_0" function="internal">
        <lane id=":B1_0_0" index="0" speed="13.89" length="25.86" shape="122.22,101.60,-29.90 110.58,101.60,-6.80"/>
    </edge>
    <edge id=":B1_1" function="internal">
        <lane id=":B1_1_0" index="0" speed="9.97" length="6.48" shape="122.22,101.60,-29.90 119.15,101.27,-29.90 116.43,100.28,-29.90 116.03,100.00,-29.90"/>
    </edge>
    <edge id=":B1_2" function="internal">
        <lane id=":B1_2_0" index="0" speed="3.65" length="2.34" shape="122.22,101.60,-29.90 121.02,100.80,-29.90 120.62,100.00,-29.90"/>
    </edge>
    <edge id=":B1_9" function="internal">
        <lane id=":B1_9_0" index="0" speed="9.97" length="5.51" shape="116.03,100.00,-29.90 114.04,98.62,-29.90 112.00,96.31,-29.90"/>
    </edge>
    <edge id=":B1_10" function="internal">
        <lane id=":B1_10_0" index="0" speed="3.65" length="2.34" shape="120.62,100.00,-29.90 121.02,99.20,-29.90 122.22,98.40,-29.90"/>
    </edge>
    <edge id=":B1_3" function="internal">
        <lane id=":B1_3_0" index="0" speed="8.67" length="8.92" shape="114.61,94.46,-29.90 116.13,96.18,-29.90 117.91,97.41,-29.90 119.94,98.15,-29.90 122.22,98.40,-29.90"/>
    </edge>
    <edge id=":B1_4" function="internal">
        <lane id=":B1_4_0" index="0" speed="5.28" length="24.50" shape="114.61,94.46,-29.90 110.58,101.60,-6.80"/>
    </edge>
    <edge id=":B1_5" function="internal">
        <lane id=":B1_5_0" index="0" speed="3.65" length="4.67" shape="114.61,94.46,-29.90 114.65,95.90,-29.90 114.23,96.69,-29.90 113.34,96.82,-29.90 112.00,96.31,-29.90"/>
    </edge>
    <edge id=":B1_6" function="internal">
        <lane id=":B1_6_0" index="0" speed="3.40" length="32.17" shape="110.60,98.40,2.18 112.00,96.31,-29.90"/>
    </edge>
    <edge id=":B1_7" function="internal">
        <lane id=":B1_7_0" index="0" speed="13.89" length="34.11" shape="110.60,98.40,2.18 122.22,98.40,-29.90"/>
    </edge>
    <edge id=":B1_8" function="internal">
        <lane id=":B1_8_0" index="0" speed="3.24" length="1.60" shape="110.60,98.40,2.18 110.60,98.94,0.67"/>
    </edge>
    <edge id=":B1_11" function="internal">
        <lane id=":B1_11_0" index="0" speed="3.24" length="7.93" shape="110.60,98.94,0.67 110.58,101.60,-6.80"/>
    </edge>
    <edge id=":C0_0" function="internal">
        <lane id=":C0_0_0" index="0" speed="6.58" length="9.13" shape="256.23,7.29,-100.36 255.84,4.80,-100.36 254.76,3.02,-100.36 253.00,1.96,-100.36 250.55,1.60,-100.36"/>
    </edge>
    <edge id=":C0_1" function="internal">
        <lane id=":C0_1_0" index="0" speed="7.97" length="14.27" shape="256.23,7.29,-100.36 256.71,3.40,-100.36 258.33,0.62,-100.36 261.08,-1.04,-100.36 264.96,-1.60,-100.36"/>
    </edge>
    <edge id=":C0_2" function="internal">
        <lane id=":C0_2_0" index="0" speed="3.65" length="4.67" shape="256.23,7.29,-100.36 257.01,6.08,-100.36 257.80,5.66,-100.36 258.61,6.05,-100.36 259.43,7.23,-100.36"/>
    </edge>
    <edge id=":C0_3" function="internal">
        <lane id=":C0_3_0" index="0" speed="6.47" length="9.03" shape="264.96,1.60,-100.36 262.50,1.95,-100.36 260.76,3.01,-100.36 259.74,4.77,-100.36 259.43,7.23,-100.36"/>
    </edge>
    <edge id=":C0_4" function="internal">
        <lane id=":C0_4_0" index="0" speed="13.89" length="14.40" shape="264.96,1.60,-100.36 250.55,1.60,-100.36"/>
    </edge>
    <edge id=":C0_5" function="internal">
        <lane id=":C0_5_0" index="0" speed="3.65" length="2.34" shape="264.96,1.60,-100.36 263.76,0.80,-100.36 263.36,0.00,-100.36"/>
    </edge>
    <edge id=":C0_9" function="internal">
        <lane id=":C0_9_0" index="0" speed="3.65" length="2.34" shape="263.36,0.00,-100.36 263.76,-0.80,-100.36 264.96,-1.60,-100.36"/>
    </edge>
    <edge id=":C0_6" function="internal">
        <lane id=":C0_6_0" index="0" speed="13.89" length="14.40" shape="250.55,-1.60,-100.36 264.96,-1.60,-100.36"/>
    </edge>
    <edge id=":C0_7" function="internal">
        <lane id=":C0_7_0" index="0" speed="8.06" length="5.89" shape="250.55,-1.60,-100.36 254.38,-1.05,-100.36 256.12,0.00,-100.36"/>
    </edge>
    <edge id=":C0_8" function="internal">
        <lane id=":C0_8_0" index="0" speed="3.65" length="2.34" shape="250.55,-1.60,-100.36 251.75,-0.80,-100.36 252.15,0.00,-100.36"/>
    </edge>
    <edge id=":C0_10" function="internal">
        <lane id=":C0_10_0" index="0" speed="8.06" length="8.33" shape="256.12,0.00,-100.36 257.13,0.61,-100.36 258.81,3.37,-100.36 259.43,7.23,-100.36"/>
    </edge>
    <edge id=":C0_11" function="internal">
        <lane id=":C0_11_0" index="0" speed="3.65" length="2.34" shape="252.15,0.00,-100.36 251.75,0.80,-100.36 250.55,1.60,-100.36"/>
    </edge>
    <edge id=":C1_0" function="internal">
        <lane id=":C1_0_0" index="0" speed="13.89" length="14.40" shape="266.76,101.60,-163.78 252.36,101.60,-163.78"/>
    </edge>
    <edge id=":C1_1" function="internal">
        <lane id=":C1_1_0" index="0" speed="8.06" length="5.89" shape="266.76,101.60,-163.78 262.94,101.05,-163.78 261.20,100.00,-163.78"/>
    </edge>
    <edge id=":C1_2" function="internal">
        <lane id=":C1_2_0" index="0" speed="3.65" length="2.34" shape="266.76,101.60,-163.78 265.56,100.80,-163.78 265.16,100.00,-163.78"/>
    </edge>
    <edge id=":C1_9" function="internal">
        <lane id=":C1_9_0" index="0" speed="8.06" length="8.33" shape="261.20,100.00,-163.78 260.19,99.39,-163.78 258.50,96.63,-163.78 257.89,92.77,-163.78"/>
    </edge>
    <edge id=":C1_10" function="internal">
        <lane id=":C1_10_0" index="0" speed="3.65" length="2.34" shape="265.16,100.00,-163.78 265.56,99.20,-163.78 266.76,98.40,-163.78"/>
    </edge>
    <edge id=":C1_3" function="internal">
        <lane id=":C1_3_0" index="0" speed="6.58" length="9.13" shape="261.09,92.71,-163.78 261.48,95.20,-163.78 262.56,96.98,-163.78 264.32,98.04,-163.78 266.76,98.40,-163.78"/>
    </edge>
    <edge id=":C1_4" function="internal">
        <lane id=":C1_4_0" index="0" speed="7.97" length="14.27" shape="261.09,92.71,-163.78 260.60,96.60,-163.78 258.99,99.38,-163.78 256.24,101.04,-163.78 252.36,101.60,-163.78"/>
    </edge>
    <edge id=":C1_5" function="internal">
        <lane id=":C1_5_0" index="0" speed="3.65" length="4.67" shape="261.09,92.71,-163.78 260.31,93.92,-163.78 259.52,94.34,-163.78 258.71,93.95,-163.78 257.89,92.77,-163.78"/>
    </edge>
    <edge id=":C1_6" function="internal">
        <lane id=":C1_6_0" index="0" speed="6.47" length="9.03" shape="252.36,98.40,-163.78 254.82,98.05,-163.78 256.56,96.99,-163.78 257.58,95.23,-163.78 257.89,92.77,-163.78"/>
    </edge>
    <edge id=":C1_7" function="internal">
        <lane id=":C1_7_0" index="0" speed="13.89" length="14.40" shape="252.36,98.40,-163.78 266.76,98.40,-163.78"/>
    </edge>
    <edge id=":C1_8" function="internal">
        <lane id=":C1_8_0" index="0" speed="3.65" length="2.34" shape="252.36,98.40,-163.78 253.56,99.20,-163.78 253.96,100.00,-163.78"/>
    </edge>
    <edge id=":C1_11" function="internal">
        <lane id=":C1_11_0" index="0" speed="3.65" length="2.34" shape="253.96,100.00,-163.78 253.56,100.80,-163.78 252.36,101.60,-163.78"/>
    </edge>
    <edge id=":D0_0" function="internal">
        <lane id=":D0_0_0" index="0" speed="9.58" length="12.42" shape="379.20,1.60,3.35 376.78,2.07,3.35 374.42,3.47,3.35 372.14,5.80,3.35 369.93,9.07,3.35"/>
    </edge>
    <edge id=":D0_1" function="internal">
        <lane id=":D0_1_0" index="0" speed="13.89" length="15.41" shape="379.20,1.60,3.35 363.79,1.60,3.35"/>
    </edge>
    <edge id=":D0_2" function="internal">
        <lane id=":D0_2_0" index="0" speed="3.65" length="2.34" shape="379.20,1.60,3.35 378.00,0.80,3.35 377.60,0.00,3.35"/>
    </edge>
    <edge id=":D0_9" function="internal">
        <lane id=":D0_9_0" index="0" speed="3.65" length="2.34" shape="377.60,0.00,3.35 378.00,-0.80,3.35 379.20,-1.60,3.35"/>
    </edge>
    <edge id=":D0_3" function="internal">
        <lane id=":D0_3_0" index="0" speed="13.89" length="15.41" shape="363.79,-1.60,3.35 379.20,-1.60,3.35"/>
    </edge>
    <edge id=":D0_4" function="internal">
        <lane id=":D0_4_0" index="0" speed="7.40" length="6.62" shape="363.79,-1.60,3.35 368.81,-0.93,3.35 370.06,0.00,3.35"/>
    </edge>
    <edge id=":D0_5" function="internal">
        <lane id=":D0_5_0" index="0" speed="3.65" length="2.34" shape="363.79,-1.60,3.35 364.99,-0.80,3.35 365.39,0.00,3.35"/>
    </edge>
    <edge id=":D0_10" function="internal">
        <lane id=":D0_10_0" index="0" speed="7.40" length="10.21" shape="370.06,0.00,3.35 371.50,1.07,3.35 371.88,4.40,3.35 369.93,9.07,3.35"/>
    </edge>
    <edge id=":D0_11" function="internal">
        <lane id=":D0_11_0" index="0" speed="3.65" length="2.34" shape="365.39,0.00,3.35 364.99,0.80,3.35 363.79,1.60,3.35"/>
    </edge>
    <edge id=":D0_6" function="internal">
        <lane id=":D0_6_0" index="0" speed="5.66" length="9.24" shape="367.16,7.46,3.35 368.23,4.90,3.35 368.03,3.07,3.35 366.55,1.97,3.35 363.79,1.60,3.35"/>
    </edge>
    <edge id=":D0_7" function="internal">
        <lane id=":D0_7_0" index="0" speed="10.74" length="15.75" shape="367.16,7.46,3.35 369.89,3.50,3.35 372.81,0.67,3.35 375.91,-1.03,3.35 379.20,-1.60,3.35"/>
    </edge>
    <edge id=":D0_8" function="internal">
        <lane id=":D0_8_0" index="0" speed="3.65" length="4.67" shape="367.16,7.46,3.35 368.46,6.83,3.35 369.35,6.88,3.35 369.84,7.63,3.35 369.93,9.07,3.35"/>
    </edge>
    <edge id=":D1_0" function="internal">
        <lane id=":D1_0_0" index="0" speed="13.89" length="15.41" shape="324.67,101.60,116.16 309.26,101.60,116.16"/>
    </edge>
    <edge id=":D1_1" function="internal">
        <lane id=":D1_1_0" index="0" speed="7.40" length="6.62" shape="324.67,101.60,116.16 319.65,100.93,116.16 318.40,100.00,116.16"/>
    </edge>
    <edge id=":D1_2" function="internal">
        <lane id=":D1_2_0" index="0" speed="3.65" length="2.34" shape="324.67,101.60,116.16 323.47,100.80,116.16 323.07,100.00,116.16"/>
    </edge>
    <edge id=":D1_9" function="internal">
        <lane id=":D1_9_0" index="0" speed="7.40" length="10.21" shape="318.40,100.00,116.16 316.96,98.93,116.16 316.58,95.60,116.16 318.53,90.93,116.16"/>
    </edge>
    <edge id=":D1_10" function="internal">
        <lane id=":D1_10_0" index="0" speed="3.65" length="2.34" shape="323.07,100.00,116.16 323.47,99.20,116.16 324.67,98.40,116.16"/>
    </edge>
    <edge id=":D1_3" function="internal">
        <lane id=":D1_3_0" index="0" speed="5.66" length="9.24" shape="321.30,92.54,116.16 320.23,95.10,116.16 320.43,96.93,116.16 321.91,98.03,116.16 324.67,98.40,116.16"/>
    </edge>
    <edge id=":D1_4" function="internal">
        <lane id=":D1_4_0" index="0" speed="10.74" length="15.75" shape="321.30,92.54,116.16 318.57,96.50,116.16 315.65,99.33,116.16 312.55,101.03,116.16 309.26,101.60,116.16"/>
    </edge>
    <edge id=":D1_5" function="internal">
        <lane id=":D1_5_0" index="0" speed="3.65" length="4.67" shape="321.30,92.54,116.16 320.00,93.17,116.16 319.11,93.12,116.16 318.62,92.37,116.16 318.53,90.93,116.16"/>
    </edge>
    <edge id=":D1_6" function="internal">
        <lane id=":D1_6_0" index="0" speed="9.58" length="12.42" shape="309.26,98.40,116.16 311.68,97.93,116.16 314.04,96.53,116.16 316.32,94.20,116.16 318.53,90.93,116.16"/>
    </edge>
    <edge id=":D1_7" function="internal">
        <lane id=":D1_7_0" index="0" speed="13.89" length="15.41" shape="309.26,98.40,116.16 324.67,98.40,116.16"/>
    </edge>
    <edge id=":D1_8" function="internal">
        <lane id=":D1_8_0" index="0" speed="3.65" length="2.34" shape="309.26,98.40,116.16 310.46,99.20,116.16 310.86,100.00,116.16"/>
    </edge>
    <edge id=":D1_11" function="internal">
        <lane id=":D1_11_0" index="0" speed="3.65" length="2.34" shape="310.86,100.00,116.16 310.46,100.80,116.16 309.26,101.60,116.16"/>
    </edge>
    <edge id=":E0_0" function="internal">
        <lane id=":E0_0_0" index="0" speed="7.24" length="9.95" shape="432.13,1.60,-11.91 429.72,2.00,-11.91 427.84,3.19,-11.91 426.50,5.17,-11.91 425.69,7.95,-11.91"/>
    </edge>
    <edge id=":E0_1" function="internal">
        <lane id=":E0_1_0" index="0" speed="13.89" length="14.49" shape="432.13,1.60,-11.91 417.64,1.60,-11.91"/>
    </edge>
    <edge id=":E0_2" function="internal">
        <lane id=":E0_2_0" index="0" speed="3.65" length="2.34" shape="432.13,1.60,-11.91 430.93,0.80,-11.91 430.53,0.00,-11.91"/>
    </edge>
    <edge id=":E0_9" function="internal">
        <lane id=":E0_9_0" index="0" speed="3.65" length="2.34" shape="430.53,0.00,-11.91 430.93,-0.80,-11.91 432.13,-1.60,-11.91"/>
    </edge>
    <edge id=":E0_3" function="internal">
        <lane id=":E0_3_0" index="0" speed="13.89" length="14.49" shape="417.64,-1.60,-11.91 432.13,-1.60,-11.91"/>
    </edge>
    <edge id=":E0_4" function="internal">
        <lane id=":E0_4_0" index="0" speed="7.73" length="6.01" shape="417.64,-1.60,-11.91 421.77,-1.00,-11.91 423.30,0.00,-11.91"/>
    </edge>
    <edge id=":E0_5" function="internal">
        <lane id=":E0_5_0" index="0" speed="3.65" length="2.34" shape="417.64,-1.60,-11.91 418.84,-0.80,-11.91 419.24,0.00,-11.91"/>
    </edge>
    <edge id=":E0_10" function="internal">
        <lane id=":E0_10_0" index="0" speed="7.73" length="8.87" shape="423.30,0.00,-11.91 424.49,0.79,-11.91 425.80,3.77,-11.91 425.69,7.95,-11.91"/>
    </edge>
    <edge id=":E0_11" function="internal">
        <lane id=":E0_11_0" index="0" speed="3.65" length="2.34" shape="419.24,0.00,-11.91 418.84,0.80,-11.91 417.64,1.60,-11.91"/>
    </edge>
    <edge id=":E0_6" function="internal">
        <lane id=":E0_6_0" index="0" speed="6.17" length="9.05" shape="422.54,7.41,-11.91 422.60,4.87,-11.91 421.81,3.05,-11.91 420.15,1.96,-11.91 417.64,1.60,-11.91"/>
    </edge>
    <edge id=":E0_7" function="internal">
        <lane id=":E0_7_0" index="0" speed="8.62" length="14.50" shape="422.54,7.41,-11.91 423.72,3.47,-11.91 425.71,0.65,-11.91 428.51,-1.04,-11.91 432.13,-1.60,-11.91"/>
    </edge>
    <edge id=":E0_8" function="internal">
        <lane id=":E0_8_0" index="0" speed="3.65" length="4.67" shape="422.54,7.41,-11.91 423.53,6.36,-11.91 424.38,6.10,-11.91 425.11,6.63,-11.91 425.69,7.95,-11.91"/>
    </edge>
    <edge id=":E1_0" function="internal">
        <lane id=":E1_0_0" index="0" speed="13.89" length="14.49" shape="416.13,101.60,-66.82 401.63,101.60,-66.82"/>
    </edge>
    <edge id=":E1_1" function="internal">
        <lane id=":E1_1_0" index="0" speed="7.73" length="6.01" shape="416.13,101.60,-66.82 411.99,101.00,-66.82 410.46,100.00,-66.82"/>
    </edge>
    <edge id=":E1_2" function="internal">
        <lane id=":E1_2_0" index="0" speed="3.65" length="2.34" shape="416.13,101.60,-66.82 414.93,100.80,-66.82 414.53,100.00,-66.82"/>
    </edge>
    <edge id=":E1_9" function="internal">
        <lane id=":E1_9_0" index="0" speed="7.73" length="8.87" shape="410.46,100.00,-66.82 409.27,99.21,-66.82 407.96,96.23,-66.82 408.07,92.05,-66.82"/>
    </edge>
    <edge id=":E1_10" function="internal">
        <lane id=":E1_10_0" index="0" speed="3.65" length="2.34" shape="414.53,100.00,-66.82 414.93,99.20,-66.82 416.13,98.40,-66.82"/>
    </edge>
    <edge id=":E1_3" function="internal">
        <lane id=":E1_3_0" index="0" speed="6.17" length="9.05" shape="411.22,92.59,-66.82 411.16,95.13,-66.82 411.95,96.95,-66.82 413.61,98.04,-66.82 416.13,98.40,-66.82"/>
    </edge>
    <edge id=":E1_4" function="internal">
        <lane id=":E1_4_0" index="0" speed="8.62" length="14.50" shape="411.22,92.59,-66.82 410.05,96.53,-66.82 408.06,99.35,-66.82 405.25,101.04,-66.82 401.63,101.60,-66.82"/>
    </edge>
    <edge id=":E1_5" function="internal">
        <lane id=":E1_5_0" index="0" speed="3.65" length="4.67" shape="411.22,92.59,-66.82 410.23,93.64,-66.82 409.38,93.90,-66.82 408.66,93.37,-66.82 408.07,92.05,-66.82"/>
    </edge>
    <edge id=":E1_6" function="internal">
        <lane id=":E1_6_0" index="0" speed="7.24" length="9.95" shape="401.63,98.40,-66.82 404.04,98.00,-66.82 405.92,96.81,-66.82 407.26,94.83,-66.82 408.07,92.05,-66.82"/>
    </edge>
    <edge id=":E1_7" function="internal">
        <lane id=":E1_7_0" index="0" speed="13.89" length="14.49" shape="401.63,98.40,-66.82 416.13,98.40,-66.82"/>
    </edge>
    <edge id=":E1_8" function="internal">
        <lane id=":E1_8_0" index="0" speed="3.65" length="2.34" shape="401.63,98.40,-66.82 402.83,99.20,-66.82 403.23,100.00,-66.82"/>
    </edge>
    <edge id=":E1_11" function="internal">
        <lane id=":E1_11_0" index="0" speed="3.65" length="2.34" shape="403.23,100.00,-66.82 402.83,100.80,-66.82 401.63,101.60,-66.82"/>
    </edge>
    <edge id=":F0_0" function="internal">
        <lane id=":F0_0_0" index="0" speed="6.66" length="9.23" shape="524.62,1.60,-60.78 522.18,1.96,-60.78 520.41,3.05,-60.78 519.30,4.85,-60.78 518.86,7.38,-60.78"/>
    </edge>
    <edge id=":F0_1" function="internal">
        <lane id=":F0_1_0" index="0" speed="13.89" length="14.40" shape="524.62,1.60,-60.78 510.22,1.60,-60.78"/>
    </edge>
    <edge id=":F0_2" function="internal">
        <lane id=":F0_2_0" index="0" speed="3.65" length="2.34" shape="524.62,1.60,-60.78 523.42,0.80,-60.78 523.02,0.00,-60.78"/>
    </edge>
    <edge id=":F0_9" function="internal">
        <lane id=":F0_9_0" index="0" speed="3.65" length="2.34" shape="523.02,0.00,-60.78 523.42,-0.80,-60.78 524.62,-1.60,-60.78"/>
    </edge>
    <edge id=":F0_3" function="internal">
        <lane id=":F0_3_0" index="0" speed="13.89" length="14.40" shape="510.22,-1.60,-60.78 524.62,-1.60,-60.78"/>
    </edge>
    <edge id=":F0_4" function="internal">
        <lane id=":F0_4_0" index="0" speed="7.93" length="5.94" shape="510.22,-1.60,-60.78 514.13,-1.04,-60.78 515.82,0.00,-60.78"/>
    </edge>
    <edge id=":F0_5" function="internal">
        <lane id=":F0_5_0" index="0" speed="3.65" length="2.34" shape="510.22,-1.60,-60.78 511.42,-0.80,-60.78 511.82,0.00,-60.78"/>
    </edge>
    <edge id=":F0_10" function="internal">
        <lane id=":F0_10_0" index="0" speed="7.93" length="8.40" shape="515.82,0.00,-60.78 516.87,0.65,-60.78 518.45,3.45,-60.78 518.86,7.38,-60.78"/>
    </edge>
    <edge id=":F0_11" function="internal">
        <lane id=":F0_11_0" index="0" speed="3.65" length="2.34" shape="511.82,0.00,-60.78 511.42,0.80,-60.78 510.22,1.60,-60.78"/>
    </edge>
    <edge id=":F0_6" function="internal">
        <lane id=":F0_6_0" index="0" speed="6.42" length="9.03" shape="515.66,7.26,-60.78 515.40,4.78,-60.78 514.41,3.01,-60.78 512.68,1.95,-60.78 510.22,1.60,-60.78"/>
    </edge>
    <edge id=":F0_7" function="internal">
        <lane id=":F0_7_0" index="0" speed="8.13" length="14.25" shape="515.66,7.26,-60.78 516.35,3.38,-60.78 518.07,0.61,-60.78 520.83,-1.05,-60.78 524.62,-1.60,-60.78"/>
    </edge>
    <edge id=":F0_8" function="internal">
        <lane id=":F0_8_0" index="0" speed="3.65" length="4.67" shape="515.66,7.26,-60.78 516.51,6.09,-60.78 517.32,5.72,-60.78 518.11,6.15,-60.78 518.86,7.38,-60.78"/>
    </edge>
    <edge id=":F1_0" function="internal">
        <lane id=":F1_0_0" index="0" speed="13.89" length="14.40" shape="521.02,101.60,10.98 506.62,101.60,10.98"/>
    </edge>
    <edge id=":F1_1" function="internal">
        <lane id=":F1_1_0" index="0" speed="7.93" length="5.94" shape="521.02,101.60,10.98 517.11,101.04,10.98 515.42,100.00,10.98"/>
    </edge>
    <edge id=":F1_2" function="internal">
        <lane id=":F1_2_0" index="0" speed="3.65" length="2.34" shape="521.02,101.60,10.98 519.82,100.80,10.98 519.42,100.00,10.98"/>
    </edge>
    <edge id=":F1_9" function="internal">
        <lane id=":F1_9_0" index="0" speed="7.93" length="8.40" shape="515.42,100.00,10.98 514.37,99.35,10.98 512.79,96.55,10.98 512.38,92.62,10.98"/>
    </edge>
    <edge id=":F1_10" function="internal">
        <lane id=":F1_10_0" index="0" speed="3.65" length="2.34" shape="519.42,100.00,10.98 519.82,99.20,10.98 521.02,98.40,10.98"/>
    </edge>
    <edge id=":F1_3" function="internal">
        <lane id=":F1_3_0" index="0" speed="6.42" length="9.03" shape="515.58,92.74,10.98 515.84,95.22,10.98 516.83,96.99,10.98 518.56,98.05,10.98 521.02,98.40,10.98"/>
    </edge>
    <edge id=":F1_4" function="internal">
        <lane id=":F1_4_0" index="0" speed="8.13" length="14.25" shape="515.58,92.74,10.98 514.89,96.62,10.98 513.17,99.39,10.98 510.41,101.05,10.98 506.62,101.60,10.98"/>
    </edge>
    <edge id=":F1_5" function="internal">
        <lane id=":F1_5_0" index="0" speed="3.65" length="4.67" shape="515.58,92.74,10.98 514.73,93.91,10.98 513.92,94.28,10.98 513.13,93.85,10.98 512.38,92.62,10.98"/>
    </edge>
    <edge id=":F1_6" function="internal">
        <lane id=":F1_6_0" index="0" speed="6.66" length="9.23" shape="506.62,98.40,10.98 509.05,98.04,10.98 510.83,96.95,10.98 511.94,95.15,10.98 512.38,92.62,10.98"/>
    </edge>
    <edge id=":F1_7" function="internal">
        <lane id=":F1_7_0" index="0" speed="13.89" length="14.40" shape="506.62,98.40,10.98 521.02,98.40,10.98"/>
    </edge>
    <edge id=":F1_8" function="internal">
        <lane id=":F1_8_0" index="0" speed="3.65" length="2.34" shape="506.62,98.40,10.98 507.82,99.20,10.98 508.22,100.00,10.98"/>
    </edge>
    <edge id=":F1_11" function="internal">
        <lane id=":F1_11_0" index="0" speed="3.65" length="2.34" shape="508.22,100.00,10.98 507.82,100.80,10.98 506.62,101.60,10.98"/>
    </edge>
    <edge id=":G0_0" function="internal">
        <lane id=":G0_0_0" index="0" speed="9.34" length="12.19" shape="631.93,9.01,-33.08 629.86,5.77,-33.08 627.66,3.45,-33.08 625.36,2.06,-33.08 622.94,1.60,-33.08"/>
    </edge>
    <edge id=":G0_1" function="internal">
        <lane id=":G0_1_0" index="0" speed="7.42" length="16.63" shape="631.93,9.01,-33.08 630.16,4.37,-33.08 630.61,1.05,-33.08 633.31,-0.94,-33.08 638.23,-1.60,-33.08"/>
    </edge>
    <edge id=":G0_2" function="internal">
        <lane id=":G0_2_0" index="0" speed="3.65" length="4.67" shape="631.93,9.01,-33.08 632.06,7.57,-33.08 632.57,6.84,-33.08 633.47,6.81,-33.08 634.74,7.48,-33.08"/>
    </edge>
    <edge id=":G0_3" function="internal">
        <lane id=":G0_3_0" index="0" speed="5.69" length="9.22" shape="638.23,1.60,-33.08 635.50,1.97,-33.08 634.01,3.07,-33.08 633.76,4.91,-33.08 634.74,7.48,-33.08"/>
    </edge>
    <edge id=":G0_4" function="internal">
        <lane id=":G0_4_0" index="0" speed="13.89" length="15.29" shape="638.23,1.60,-33.08 622.94,1.60,-33.08"/>
    </edge>
    <edge id=":G0_5" function="internal">
        <lane id=":G0_5_0" index="0" speed="3.65" length="2.34" shape="638.23,1.60,-33.08 637.03,0.80,-33.08 636.63,0.00,-33.08"/>
    </edge>
    <edge id=":G0_9" function="internal">
        <lane id=":G0_9_0" index="0" speed="3.65" length="2.34" shape="636.63,0.00,-33.08 637.03,-0.80,-33.08 638.23,-1.60,-33.08"/>
    </edge>
    <edge id=":G0_6" function="internal">
        <lane id=":G0_6_0" index="0" speed="13.89" length="15.29" shape="622.94,-1.60,-33.08 638.23,-1.60,-33.08"/>
    </edge>
    <edge id=":G0_7" function="internal">
        <lane id=":G0_7_0" index="0" speed="10.51" length="5.48" shape="622.94,-1.60,-33.08 626.25,-1.03,-33.08 628.11,-0.00,-33.08"/>
    </edge>
    <edge id=":G0_8" function="internal">
        <lane id=":G0_8_0" index="0" speed="3.65" length="2.34" shape="622.94,-1.60,-33.08 624.14,-0.80,-33.08 624.54,0.00,-33.08"/>
    </edge>
    <edge id=":G0_10" function="internal">
        <lane id=":G0_10_0" index="0" speed="10.51" length="10.13" shape="628.11,-0.00,-33.08 629.32,0.67,-33.08 632.15,3.51,-33.08 634.74,7.48,-33.08"/>
    </edge>
    <edge id=":G0_11" function="internal">
        <lane id=":G0_11_0" index="0" speed="3.65" length="2.34" shape="624.54,0.00,-33.08 624.14,0.80,-33.08 622.94,1.60,-33.08"/>
    </edge>
    <edge id=":G1_0" function="internal">
        <lane id=":G1_0_0" index="0" speed="13.89" length="15.29" shape="689.29,101.60,82.33 674.00,101.60,82.33"/>
    </edge>
    <edge id=":G1_1" function="internal">
        <lane id=":G1_1_0" index="0" speed="10.51" length="5.48" shape="689.29,101.60,82.33 685.98,101.03,82.33 684.12,100.00,82.33"/>
    </edge>
    <edge id=":G1_2" function="internal">
        <lane id=":G1_2_0" index="0" speed="3.65" length="2.34" shape="689.29,101.60,82.33 688.09,100.80,82.33 687.69,100.00,82.33"/>
    </edge>
    <edge id=":G1_9" function="internal">
        <lane id=":G1_9_0" index="0" speed="10.51" length="10.13" shape="684.12,100.00,82.33 682.91,99.33,82.33 680.08,96.49,82.33 677.49,92.52,82.33"/>
    </edge>
    <edge id=":G1_10" function="internal">
        <lane id=":G1_10_0" index="0" speed="3.65" length="2.34" shape="687.69,100.00,82.33 688.09,99.20,82.33 689.29,98.40,82.33"/>
    </edge>
    <edge id=":G1_3" function="internal">
        <lane id=":G1_3_0" index="0" speed="9.34" length="12.19" shape="680.30,90.99,82.33 682.37,94.23,82.33 684.56,96.55,82.33 686.87,97.94,82.33 689.29,98.40,82.33"/>
    </edge>
    <edge id=":G1_4" function="internal">
        <lane id=":G1_4_0" index="0" speed="7.42" length="16.63" shape="680.30,90.99,82.33 682.07,95.63,82.33 681.61,98.95,82.33 678.92,100.94,82.33 674.00,101.60,82.33"/>
    </edge>
    <edge id=":G1_5" function="internal">
        <lane id=":G1_5_0" index="0" speed="3.65" length="4.67" shape="680.30,90.99,82.33 680.17,92.43,82.33 679.66,93.16,82.33 678.76,93.19,82.33 677.49,92.52,82.33"/>
    </edge>
    <edge id=":G1_6" function="internal">
        <lane id=":G1_6_0" index="0" speed="5.69" length="9.22" shape="674.00,98.40,82.33 676.73,98.03,82.33 678.22,96.93,82.33 678.47,95.09,82.33 677.49,92.52,82.33"/>
    </edge>
    <edge id=":G1_7" function="internal">
        <lane id=":G1_7_0" index="0" speed="13.89" length="15.29" shape="674.00,98.40,82.33 689.29,98.40,82.33"/>
    </edge>
    <edge id=":G1_8" function="internal">
        <lane id=":G1_8_0" index="0" speed="3.65" length="2.34" shape="674.00,98.40,82.33 675.20,99.20,82.33 675.60,100.00,82.33"/>