<?xml version="1.0" encoding="UTF-8"?>

<!-- generated on 07/24/20 11:51:56 by Eclipse SUMO netgenerate Version 1.5.0
<configuration xmlns:xsi="http://www.w3.org/2001/XMLSchema-instance" xsi:noNamespaceSchemaLocation="http://sumo.dlr.de/xsd/netgenerateConfiguration.xsd">

    <grid_network>
        <grid value="true"/>
        <grid.x-number value="20"/>
        <grid.y-number value="2"/>
    </grid_network>

    <output>
        <output-file value="4.net.xml"/>
    </output>

    <processing>
        <perturb-x value="10"/>
        <perturb-z value="30"/>
    </processing>

    <random_number>
        <seed value="9023093"/>
    </random_number>

</configuration>
-->

<net version="1.3" junctionCornerDetail="5" limitTurnSpeed="5.50" xmlns:xsi="http://www.w3.org/2001/XMLSchema-instance" xsi:noNamespaceSchemaLocation="http://sumo.dlr.de/xsd/net_file.xsd">

    <location netOffset="12.11,0.00" convBoundary="0.00,0.00,1901.98,100.00" origBoundary="-12.11,0.00,1889.88,100.00" projParameter="!"/>

    <edge id=":A0_0" function="internal">
        <lane id=":A0_0_0" index="0" speed="3.92" length="2.55" shape="15.70,1.60,-11.52 15.07,1.69,-11.79 14.60,1.95,-12.02 14.28,2.39,-12.25 14.11,3.00,-12.52"/>
    </edge>
    <edge id=":A0_1" function="internal">
        <lane id=":A0_1_0" index="0" speed="6.10" length="7.11" shape="10.94,2.59,-12.52 11.43,0.76,-12.26 12.39,-0.55,-12.04 13.82,-1.34,-11.82 15.70,-1.60,-11.56"/>
    </edge>
    <edge id=":A1_0" function="internal">
        <lane id=":A1_0_0" index="0" speed="6.07" length="8.57" shape="3.64,101.60,-22.33 1.29,101.26,-22.66 -0.28,100.25,-22.92 -1.09,98.56,-23.18 -1.12,96.19,-23.50"/>
    </edge>
    <edge id=":A1_1" function="internal">
        <lane id=":A1_1_0" index="0" speed="3.90" length="3.03" shape="2.05,96.60,-23.50 2.06,97.39,-23.20 2.33,97.95,-22.96 2.86,98.29,-22.72 3.64,98.40,-22.42"/>
    </edge>
    <edge id=":B0_0" function="internal">
        <lane id=":B0_0_0" index="0" speed="6.53" length="9.06" shape="134.82,1.60,13.64 132.37,1.95,13.64 130.62,3.01,13.64 129.56,4.76,13.64 129.20,7.23,13.64"/>
    </edge>
    <edge id=":B0_1" function="internal">
        <lane id=":B0_1_0" index="0" speed="13.89" length="14.40" shape="134.82,1.60,13.64 120.42,1.60,13.64"/>
    </edge>
    <edge id=":B0_2" function="internal">
        <lane id=":B0_2_0" index="0" speed="3.65" length="2.34" shape="134.82,1.60,13.64 133.62,0.80,13.64 133.22,0.00,13.64"/>
    </edge>
    <edge id=":B0_9" function="internal">
        <lane id=":B0_9_0" index="0" speed="3.65" length="2.34" shape="133.22,0.00,13.64 133.62,-0.80,13.64 134.82,-1.60,13.64"/>
    </edge>
    <edge id=":B0_3" function="internal">
        <lane id=":B0_3_0" index="0" speed="13.89" length="14.40" shape="120.42,-1.60,13.64 134.82,-1.60,13.64"/>
    </edge>
    <edge id=":B0_4" function="internal">
        <lane id=":B0_4_0" index="0" speed="7.99" length="5.93" shape="120.42,-1.60,13.64 124.28,-1.05,13.64 126.02,0.00,13.64"/>
    </edge>
    <edge id=":B0_5" function="internal">
        <lane id=":B0_5_0" index="0" speed="3.65" length="2.34" shape="120.42,-1.60,13.64 121.62,-0.80,13.64 122.02,0.00,13.64"/>
    </edge>
    <edge id=":B0_10" function="internal">
        <lane id=":B0_10_0" index="0" speed="7.99" length="8.28" shape="126.02,0.00,13.64 127.03,0.61,13.64 128.66,3.36,13.64 129.20,7.23,13.64"/>
    </edge>
    <edge id=":B0_11" function="internal">
        <lane id=":B0_11_0" index="0" speed="3.65" length="2.34" shape="122.02,0.00,13.64 121.62,0.80,13.64 120.42,1.60,13.64"/>
    </edge>
    <edge id=":B0_6" function="internal">
        <lane id=":B0_6_0" index="0" speed="6.50" length="9.03" shape="126.00,7.21,13.64 125.66,4.75,13.64 124.62,3.00,13.64 122.87,1.95,13.64 120.42,1.60,13.64"/>
    </edge>
    <edge id=":B0_7" function="internal">
        <lane id=":B0_7_0" index="0" speed="8.02" length="14.20" shape="126.00,7.21,13.64 126.56,3.35,13.64 128.23,0.60,13.64 130.98,-1.05,13.64 134.82,-1.60,13.64"/>
    </edge>
    <edge id=":B0_8" function="internal">
        <lane id=":B0_8_0" index="0" speed="3.65" length="4.67" shape="126.00,7.21,13.64 126.80,6.01,13.64 127.60,5.62,13.64 128.40,6.02,13.64 129.20,7.23,13.64"/>
    </edge>
    <edge id=":B1_0" function="internal">
        <lane id=":B1_0_0" index="0" speed="13.89" length="14.40" shape="134.30,101.60,28.71 119.90,101.60,28.71"/>
    </edge>
    <edge id=":B1_1" function="internal">
        <lane id=":B1_1_0" index="0" speed="7.99" length="5.93" shape="134.30,101.60,28.71 130.44,101.05,28.71 128.70,100.00,28.71"/>
    </edge>
    <edge id=":B1_2" function="internal">
        <lane id=":B1_2_0" index="0" speed="3.65" length="2.34" shape="134.30,101.60,28.71 133.10,100.80,28.71 132.70,100.00,28.71"/>
    </edge>
    <edge id=":B1_9" function="internal">
        <lane id=":B1_9_0" index="0" speed="7.99" length="8.28" shape="128.70,100.00,28.71 127.69,99.39,28.71 126.05,96.64,28.71 125.52,92.77,28.71"/>
    </edge>
    <edge id=":B1_10" function="internal">
        <lane id=":B1_10_0" index="0" speed="3.65" length="2.34" shape="132.70,100.00,28.71 133.10,99.20,28.71 134.30,98.40,28.71"/>
    </edge>
    <edge id=":B1_3" function="internal">
        <lane id=":B1_3_0" index="0" speed="6.50" length="9.03" shape="128.72,92.79,28.71 129.06,95.25,28.71 130.10,97.00,28.71 131.84,98.05,28.71 134.30,98.40,28.71"/>
    </edge>
    <edge id=":B1_4" function="internal">
        <lane id=":B1_4_0" index="0" speed="8.02" length="14.20" shape="128.72,92.79,28.71 128.15,96.65,28.71 126.49,99.40,28.71 123.74,101.05,28.71 119.90,101.60,28.71"/>
    </edge>
    <edge id=":B1_5" function="internal">
        <lane id=":B1_5_0" index="0" speed="3.65" length="4.67" shape="128.72,92.79,28.71 127.91,93.99,28.71 127.11,94.38,28.71 126.31,93.98,28.71 125.52,92.77,28.71"/>
    </edge>
    <edge id=":B1_6" function="internal">
        <lane id=":B1_6_0" index="0" speed="6.53" length="9.06" shape="119.90,98.40,28.71 122.34,98.05,28.71 124.10,96.99,28.71 125.16,95.24,28.71 125.52,92.77,28.71"/>
    </edge>
    <edge id=":B1_7" function="internal">
        <lane id=":B1_7_0" index="0" speed="13.89" length="14.40" shape="119.90,98.40,28.71 134.30,98.40,28.71"/>
    </edge>
    <edge id=":B1_8" function="internal">
        <lane id=":B1_8_0" index="0" speed="3.65" length="2.34" shape="119.90,98.40,28.71 121.10,99.20,28.71 121.50,100.00,28.71"/>
    </edge>
    <edge id=":B1_11" function="internal">
        <lane id=":B1_11_0" index="0" speed="3.65" length="2.34" shape="121.50,100.00,28.71 121.10,100.80,28.71 119.90,101.60,28.71"/>
    </edge>
    <edge id=":C0_0" function="internal">
        <lane id=":C0_0_0" index="0" speed="6.52" length="9.05" shape="205.29,7.22,27.26 204.93,4.76,27.29 203.87,3.00,27.32 202.12,1.95,27.35 199.67,1.60,27.38"/>
    </edge>
    <edge id=":C0_1" function="internal">
        <lane id=":C0_1_0" index="0" speed="7.99" length="14.21" shape="205.29,7.22,27.26 205.82,3.36,27.29 207.46,0.60,27.32 210.21,-1.05,27.34 214.07,-1.60,27.38"/>
    </edge>
    <edge id=":C0_2" function="internal">
        <lane id=":C0_2_0" index="0" speed="3.65" length="4.67" shape="205.29,7.22,27.26 206.08,6.02,27.26 206.88,5.61,27.26 207.68,6.01,27.26 208.49,7.21,27.26"/>
    </edge>
    <edge id=":C0_3" function="internal">
        <lane id=":C0_3_0" index="0" speed="6.50" length="9.03" shape="214.07,1.60,27.38 211.62,1.95,27.34 209.87,3.00,27.32 208.83,4.75,27.29 208.49,7.21,27.26"/>
    </edge>
    <edge id=":C0_4" function="internal">
        <lane id=":C0_4_0" index="0" speed="13.89" length="14.40" shape="214.07,1.60,27.38 199.67,1.60,27.38"/>
    </edge>
    <edge id=":C0_5" function="internal">
        <lane id=":C0_5_0" index="0" speed="3.65" length="2.34" shape="214.07,1.60,27.38 212.87,0.80,27.38 212.47,0.00,27.38"/>
    </edge>
    <edge id=":C0_9" function="internal">
        <lane id=":C0_9_0" index="0" speed="3.65" length="2.34" shape="212.47,0.00,27.38 212.87,-0.80,27.38 214.07,-1.60,27.38"/>
    </edge>
    <edge id=":C0_6" function="internal">
        <lane id=":C0_6_0" index="0" speed="13.89" length="14.40" shape="199.67,-1.60,27.38 214.07,-1.60,27.38"/>
    </edge>
    <edge id=":C0_7" function="internal">
        <lane id=":C0_7_0" index="0" speed="8.02" length="5.92" shape="199.67,-1.60,27.38 203.51,-1.05,27.34 205.26,-0.00,27.33"/>
    </edge>
    <edge id=":C0_8" function="internal">
        <lane id=":C0_8_0" index="0" speed="3.65" length="2.34" shape="199.67,-1.60,27.38 200.87,-0.80,27.38 201.27,0.00,27.38"/>
    </edge>
    <edge id=":C0_10" function="internal">
        <lane id=":C0_10_0" index="0" speed="8.02" length="8.28" shape="205.26,-0.00,27.33 206.26,0.60,27.32 207.92,3.35,27.29 208.49,7.21,27.26"/>
    </edge>
    <edge id=":C0_11" function="internal">
        <lane id=":C0_11_0" index="0" speed="3.65" length="2.34" shape="201.27,0.00,27.38 200.87,0.80,27.38 199.67,1.60,27.38"/>
    </edge>
    <edge id=":C1_0" function="internal">
        <lane id=":C1_0_0" index="0" speed="13.89" length="14.40" shape="214.46,101.60,25.63 200.06,101.60,25.70"/>
    </edge>
    <edge id=":C1_1" function="internal">
        <lane id=":C1_1_0" index="0" speed="8.02" length="5.92" shape="214.46,101.60,25.63 210.61,101.05,25.68 208.87,100.00,25.71"/>
    </edge>
    <edge id=":C1_2" function="internal">
        <lane id=":C1_2_0" index="0" speed="3.65" length="2.34" shape="214.46,101.60,25.63 213.26,100.80,25.63 212.86,100.00,25.63"/>
    </edge>
    <edge id=":C1_9" function="internal">
        <lane id=":C1_9_0" index="0" speed="8.02" length="8.28" shape="208.87,100.00,25.71 207.86,99.40,25.73 206.21,96.65,25.77 205.64,92.79,25.82"/>
    </edge>
    <edge id=":C1_10" function="internal">
        <lane id=":C1_10_0" index="0" speed="3.65" length="2.34" shape="212.86,100.00,25.63 213.26,99.20,25.63 214.46,98.40,25.63"/>
    </edge>
    <edge id=":C1_3" function="internal">
        <lane id=":C1_3_0" index="0" speed="6.52" length="9.05" shape="208.84,92.78,25.82 209.20,95.24,25.77 210.26,97.00,25.73 212.01,98.05,25.68 214.46,98.40,25.63"/>
    </edge>
    <edge id=":C1_4" function="internal">
        <lane id=":C1_4_0" index="0" speed="7.99" length="14.21" shape="208.84,92.78,25.82 208.31,96.64,25.79 206.66,99.40,25.76 203.91,101.05,25.73 200.06,101.60,25.70"/>
    </edge>
    <edge id=":C1_5" function="internal">
        <lane id=":C1_5_0" index="0" speed="3.65" length="4.67" shape="208.84,92.78,25.82 208.05,93.98,25.82 207.25,94.39,25.82 206.45,93.99,25.82 205.64,92.79,25.82"/>
    </edge>
    <edge id=":C1_6" function="internal">
        <lane id=":C1_6_0" index="0" speed="6.50" length="9.03" shape="200.06,98.40,25.70 202.51,98.05,25.73 204.26,97.00,25.76 205.30,95.25,25.79 205.64,92.79,25.82"/>
    </edge>
    <edge id=":C1_7" function="internal">
        <lane id=":C1_7_0" index="0" speed="13.89" length="14.40" shape="200.06,98.40,25.70 214.46,98.40,25.63"/>
    </edge>
    <edge id=":C1_8" function="internal">
        <lane id=":C1_8_0" index="0" speed="3.65" length="2.34" shape="200.06,98.40,25.70 201.26,99.20,25.70 201.66,100.00,25.70"/>
    </edge>
    <edge id=":C1_11" function="internal">
        <lane id=":C1_11_0" index="0" speed="3.65" length="2.34" shape="201.66,100.00,25.70 201.26,100.80,25.70 200.06,101.60,25.70"/>
    </edge>
    <edge id=":D0_0" function="internal">
        <lane id=":D0_0_0" index="0" speed="6.91" length="9.55" shape="326.01,1.60,33.55 323.58,1.98,33.55 321.77,3.11,33.55 320.56,5.00,33.55 319.96,7.65,33.55"/>
    </edge>
    <edge id=":D0_1" function="internal">
        <lane id=":D0_1_0" index="0" speed="13.89" length="14.43" shape="326.01,1.60,33.55 311.57,1.60,33.55"/>
    </edge>
    <edge id=":D0_2" function="internal">
        <lane id=":D0_2_0" index="0" speed="3.65" length="2.34" shape="326.01,1.60,33.55 324.81,0.80,33.55 324.41,0.00,33.55"/>
    </edge>
    <edge id=":D0_9" function="internal">
        <lane id=":D0_9_0" index="0" speed="3.65" length="2.34" shape="324.41,0.00,33.55 324.81,-0.80,33.55 326.01,-1.60,33.55"/>
    </edge>
    <edge id=":D0_3" function="internal">
        <lane id=":D0_3_0" index="0" speed="13.89" length="14.43" shape="311.57,-1.60,33.55 326.01,-1.60,33.55"/>
    </edge>
    <edge id=":D0_4" function="internal">
        <lane id=":D0_4_0" index="0" speed="7.83" length="5.96" shape="311.57,-1.60,33.55 315.58,-1.02,33.55 317.20,-0.00,33.55"/>
    </edge>
    <edge id=":D0_5" function="internal">
        <lane id=":D0_5_0" index="0" speed="3.65" length="2.34" shape="311.57,-1.60,33.55 312.77,-0.80,33.55 313.17,0.00,33.55"/>
    </edge>
    <edge id=":D0_10" function="internal">
        <lane id=":D0_10_0" index="0" speed="7.83" length="8.62" shape="317.20,-0.00,33.55 318.32,0.71,33.55 319.78,3.60,33.55 319.96,7.65,33.55"/>
    </edge>
    <edge id=":D0_11" function="internal">
        <lane id=":D0_11_0" index="0" speed="3.65" length="2.34" shape="313.17,0.00,33.55 312.77,0.80,33.55 311.57,1.60,33.55"/>
    </edge>
    <edge id=":D0_6" function="internal">
        <lane id=":D0_6_0" index="0" speed="6.30" length="9.04" shape="316.77,7.34,33.55 316.66,4.83,33.55 315.76,3.03,33.55 314.06,1.96,33.55 311.57,1.60,33.55"/>
    </edge>
    <edge id=":D0_7" function="internal">
        <lane id=":D0_7_0" index="0" speed="8.34" length="14.35" shape="316.77,7.34,33.55 317.68,3.43,33.55 319.52,0.63,33.55 322.30,-1.04,33.55 326.01,-1.60,33.55"/>
    </edge>
    <edge id=":D0_8" function="internal">
        <lane id=":D0_8_0" index="0" speed="3.65" length="4.67" shape="316.77,7.34,33.55 317.69,6.22,33.55 318.52,5.90,33.55 319.28,6.38,33.55 319.96,7.65,33.55"/>
    </edge>
    <edge id=":D1_0" function="internal">
        <lane id=":D1_0_0" index="0" speed="13.89" length="14.43" shape="316.76,101.60,24.75 302.33,101.60,24.81"/>
    </edge>
    <edge id=":D1_1" function="internal">
        <lane id=":D1_1_0" index="0" speed="7.83" length="5.96" shape="316.76,101.60,24.75 312.75,101.02,24.75 311.14,100.00,24.75"/>
    </edge>
    <edge id=":D1_2" function="internal">
        <lane id=":D1_2_0" index="0" speed="3.65" length="2.34" shape="316.76,101.60,24.75 315.56,100.80,24.75 315.16,100.00,24.75"/>
    </edge>
    <edge id=":D1_9" function="internal">
        <lane id=":D1_9_0" index="0" speed="7.83" length="8.62" shape="311.14,100.00,24.75 310.01,99.29,24.75 308.56,96.40,24.75 308.38,92.35,24.75"/>
    </edge>
    <edge id=":D1_10" function="internal">
        <lane id=":D1_10_0" index="0" speed="3.65" length="2.34" shape="315.16,100.00,24.75 315.56,99.20,24.75 316.76,98.40,24.75"/>
    </edge>
    <edge id=":D1_3" function="internal">
        <lane id=":D1_3_0" index="0" speed="6.30" length="9.04" shape="311.56,92.66,24.75 311.67,95.17,24.75 312.58,96.97,24.75 314.27,98.04,24.75 316.76,98.40,24.75"/>
    </edge>
    <edge id=":D1_4" function="internal">
        <lane id=":D1_4_0" index="0" speed="8.34" length="14.35" shape="311.56,92.66,24.75 310.65,96.57,24.77 308.81,99.37,24.78 306.04,101.04,24.80 302.33,101.60,24.81"/>
    </edge>
    <edge id=":D1_5" function="internal">
        <lane id=":D1_5_0" index="0" speed="3.65" length="4.67" shape="311.56,92.66,24.75 310.65,93.78,24.75 309.81,94.10,24.75 309.05,93.62,24.75 308.38,92.35,24.75"/>
    </edge>
    <edge id=":D1_6" function="internal">
        <lane id=":D1_6_0" index="0" speed="6.91" length="9.55" shape="302.33,98.40,24.81 304.75,98.02,24.80 306.56,96.89,24.78 307.77,95.00,24.77 308.38,92.35,24.75"/>
    </edge>
    <edge id=":D1_7" function="internal">
        <lane id=":D1_7_0" index="0" speed="13.89" length="14.43" shape="302.33,98.40,24.81 316.76,98.40,24.75"/>
    </edge>
    <edge id=":D1_8" function="internal">
        <lane id=":D1_8_0" index="0" speed="3.65" length="2.34" shape="302.33,98.40,24.81 303.53,99.20,24.81 303.93,100.00,24.81"/>
    </edge>
    <edge id=":D1_11" function="internal">
        <lane id=":D1_11_0" index="0" speed="3.65" length="2.34" shape="303.93,100.00,24.81 303.53,100.80,24.81 302.33,101.60,24.81"/>
    </edge>
    <edge id=":E0_0" function="internal">
        <lane id=":E0_0_0" index="0" speed="6.55" length="9.09" shape="397.06,7.26,-54.45 396.69,4.78,-54.45 395.62,3.01,-54.45 393.86,1.95,-54.45 391.42,1.60,-54.45"/>
    </edge>
    <edge id=":E0_1" function="internal">
        <lane id=":E0_1_0" index="0" speed="7.98" length="14.24" shape="397.06,7.26,-54.45 397.57,3.38,-54.45 399.20,0.61,-54.45 401.95,-1.05,-54.45 405.82,-1.60,-54.45"/>
    </edge>
    <edge id=":E0_2" function="internal">
        <lane id=":E0_2_0" index="0" speed="3.65" length="4.67" shape="397.06,7.26,-54.45 397.85,6.05,-54.45 398.65,5.64,-54.45 399.45,6.03,-54.45 400.26,7.22,-54.45"/>
    </edge>
    <edge id=":E0_3" function="internal">
        <lane id=":E0_3_0" index="0" speed="6.48" length="9.03" shape="405.82,1.60,-54.45 403.36,1.95,-54.45 401.62,3.00,-54.45 400.59,4.76,-54.45 400.26,7.22,-54.45"/>
    </edge>
    <edge id=":E0_4" function="internal">
        <lane id=":E0_4_0" index="0" speed="13.89" length="14.40" shape="405.82,1.60,-54.45 391.42,1.60,-54.45"/>
    </edge>
    <edge id=":E0_5" function="internal">
        <lane id=":E0_5_0" index="0" speed="3.65" length="2.34" shape="405.82,1.60,-54.45 404.62,0.80,-54.45 404.22,0.00,-54.45"/>
    </edge>
    <edge id=":E0_9" function="internal">
        <lane id=":E0_9_0" index="0" speed="3.65" length="2.34" shape="404.22,0.00,-54.45 404.62,-0.80,-54.45 405.82,-1.60,-54.45"/>
    </edge>
    <edge id=":E0_6" function="internal">
        <lane id=":E0_6_0" index="0" speed="13.89" length="14.40" shape="391.42,-1.60,-54.45 405.82,-1.60,-54.45"/>
    </edge>
    <edge id=":E0_7" function="internal">
        <lane id=":E0_7_0" index="0" speed="8.04" length="5.91" shape="391.42,-1.60,-54.45 395.25,-1.05,-54.45 397.00,-0.00,-54.45"/>
    </edge>
    <edge id=":E0_8" function="internal">
        <lane id=":E0_8_0" index="0" speed="3.65" length="2.34" shape="391.42,-1.60,-54.45 392.62,-0.80,-54.45 393.02,0.00,-54.45"/>
    </edge>
    <edge id=":E0_10" function="internal">
        <lane id=":E0_10_0" index="0" speed="8.04" length="8.30" shape="397.00,-0.00,-54.45 398.00,0.60,-54.45 399.67,3.36,-54.45 400.26,7.22,-54.45"/>
    </edge>
    <edge id=":E0_11" function="internal">
        <lane id=":E0_11_0" index="0" speed="3.65" length="2.34" shape="393.02,0.00,-54.45 392.62,0.80,-54.45 391.42,1.60,-54.45"/>
    </edge>
    <edge id=":E1_0" function="internal">
        <lane id=":E1_0_0" index="0" speed="13.89" length="14.40" shape="406.90,101.60,-9.05 392.50,101.60,-9.05"/>
    </edge>
    <edge id=":E1_1" function="internal">
        <lane id=":E1_1_0" index="0" speed="8.04" length="5.91" shape="406.90,101.60,-9.05 403.07,101.05,-9.05 401.32,100.00,-9.05"/>
    </edge>
    <edge id=":E1_2" function="internal">
        <lane id=":E1_2_0" index="0" speed="3.65" length="2.34" shape="406.90,101.60,-9.05 405.70,100.80,-9.05 405.30,100.00,-9.05"/>
    </edge>
    <edge id=":E1_9" function="internal">
        <lane id=":E1_9_0" index="0" speed="8.04" length="8.30" shape="401.32,100.00,-9.05 400.32,99.40,-9.05 398.65,96.64,-9.05 398.05,92.78,-9.05"/>
    </edge>
    <edge id=":E1_10" function="internal">
        <lane id=":E1_10_0" index="0" speed="3.65" length="2.34" shape="405.30,100.00,-9.05 405.70,99.20,-9.05 406.90,98.40,-9.05"/>
    </edge>
    <edge id=":E1_3" function="internal">
        <lane id=":E1_3_0" index="0" speed="6.55" length="9.09" shape="401.25,92.74,-9.05 401.63,95.22,-9.05 402.70,96.99,-9.05 404.46,98.05,-9.05 406.90,98.40,-9.05"/>
    </edge>
    <edge id=":E1_4" function="internal">
        <lane id=":E1_4_0" index="0" speed="7.98" length="14.24" shape="401.25,92.74,-9.05 400.75,96.62,-9.05 399.12,99.39,-9.05 396.37,101.05,-9.05 392.50,101.60,-9.05"/>
    </edge>
    <edge id=":E1_5" function="internal">
        <lane id=":E1_5_0" index="0" speed="3.65" length="4.67" shape="401.25,92.74,-9.05 400.47,93.95,-9.05 399.67,94.36,-9.05 398.87,93.97,-9.05 398.05,92.78,-9.05"/>
    </edge>
    <edge id=":E1_6" function="internal">
        <lane id=":E1_6_0" index="0" speed="6.48" length="9.03" shape="392.50,98.40,-9.05 394.95,98.05,-9.05 396.70,97.00,-9.05 397.73,95.24,-9.05 398.05,92.78,-9.05"/>
    </edge>
    <edge id=":E1_7" function="internal">
        <lane id=":E1_7_0" index="0" speed="13.89" length="14.40" shape="392.50,98.40,-9.05 406.90,98.40,-9.05"/>
    </edge>
    <edge id=":E1_8" function="internal">
        <lane id=":E1_8_0" index="0" speed="3.65" length="2.34" shape="392.50,98.40,-9.05 393.70,99.20,-9.05 394.10,100.00,-9.05"/>
    </edge>
    <edge id=":E1_11" function="internal">
        <lane id=":E1_11_0" index="0" speed="3.65" length="2.34" shape="394.10,100.00,-9.05 393.70,100.80,-9.05 392.50,101.60,-9.05"/>
    </edge>
    <edge id=":F0_0" function="internal">
        <lane id=":F0_0_0" index="0" speed="6.53" length="9.06" shape="499.83,1.60,-45.28 497.38,1.95,-45.28 495.63,3.01,-45.28 494.57,4.77,-45.28 494.21,7.23,-45.28"/>
    </edge>
    <edge id=":F0_1" function="internal">
        <lane id=":F0_1_0" index="0" speed="13.89" length="14.40" shape="499.83,1.60,-45.28 485.43,1.60,-45.28"/>
    </edge>
    <edge id=":F0_2" function="internal">
        <lane id=":F0_2_0" index="0" speed="3.65" length="2.34" shape="499.83,1.60,-45.28 498.63,0.80,-45.28 498.23,0.00,-45.28"/>
    </edge>
    <edge id=":F0_9" function="internal">
        <lane id=":F0_9_0" index="0" speed="3.65" length="2.34" shape="498.23,0.00,-45.28 498.63,-0.80,-45.28 499.83,-1.60,-45.28"/>
    </edge>
    <edge id=":F0_3" function="internal">
        <lane id=":F0_3_0" index="0" speed="13.89" length="14.40" shape="485.43,-1.60,-45.28 499.83,-1.60,-45.28"/>
    </edge>
    <edge id=":F0_4" function="internal">
        <lane id=":F0_4_0" index="0" speed="7.99" length="5.93" shape="485.43,-1.60,-45.28 489.29,-1.05,-45.28 491.03,-0.00,-45.28"/>
    </edge>
    <edge id=":F0_5" function="internal">
        <lane id=":F0_5_0" index="0" speed="3.65" length="2.34" shape="485.43,-1.60,-45.28 486.63,-0.80,-45.28 487.03,0.00,-45.28"/>
    </edge>
    <edge id=":F0_10" function="internal">
        <lane id=":F0_10_0" index="0" speed="7.99" length="8.29" shape="491.03,-0.00,-45.28 492.04,0.61,-45.28 493.68,3.37,-45.28 494.21,7.23,-45.28"/>
    </edge>
    <edge id=":F0_11" function="internal">
        <lane id=":F0_11_0" index="0" speed="3.65" length="2.34" shape="487.03,0.00,-45.28 486.63,0.80,-45.28 485.43,1.60,-45.28"/>
    </edge>
    <edge id=":F0_6" function="internal">
        <lane id=":F0_6_0" index="0" speed="6.49" length="9.03" shape="491.01,7.21,-45.28 490.67,4.76,-45.28 489.63,3.00,-45.28 487.88,1.95,-45.28 485.43,1.60,-45.28"/>
    </edge>
    <edge id=":F0_7" function="internal">
        <lane id=":F0_7_0" index="0" speed="8.02" length="14.20" shape="491.01,7.21,-45.28 491.58,3.36,-45.28 493.24,0.60,-45.28 495.99,-1.05,-45.28 499.83,-1.60,-45.28"/>
    </edge>
    <edge id=":F0_8" function="internal">
        <lane id=":F0_8_0" index="0" speed="3.65" length="4.67" shape="491.01,7.21,-45.28 491.81,6.02,-45.28 492.62,5.62,-45.28 493.41,6.03,-45.28 494.21,7.23,-45.28"/>
    </edge>
    <edge id=":F1_0" function="internal">
        <lane id=":F1_0_0" index="0" speed="13.89" length="14.40" shape="499.23,101.60,19.87 484.83,101.60,19.87"/>
    </edge>
    <edge id=":F1_1" function="internal">
        <lane id=":F1_1_0" index="0" speed="7.99" length="5.93" shape="499.23,101.60,19.87 495.37,101.05,19.87 493.63,100.00,19.87"/>
    </edge>
    <edge id=":F1_2" function="internal">
        <lane id=":F1_2_0" index="0" speed="3.65" length="2.34" shape="499.23,101.60,19.87 498.03,100.80,19.87 497.63,100.00,19.87"/>
    </edge>
    <edge id=":F1_9" function="internal">
        <lane id=":F1_9_0" index="0" speed="7.99" length="8.29" shape="493.63,100.00,19.87 492.63,99.39,19.87 490.99,96.63,19.87 490.46,92.77,19.87"/>
    </edge>
    <edge id=":F1_10" function="internal">
        <lane id=":F1_10_0" index="0" speed="3.65" length="2.34" shape="497.63,100.00,19.87 498.03,99.20,19.87 499.23,98.40,19.87"/>
    </edge>
    <edge id=":F1_3" function="internal">
        <lane id=":F1_3_0" index="0" speed="6.49" length="9.03" shape="493.66,92.79,19.87 493.99,95.24,19.87 495.04,97.00,19.87 496.78,98.05,19.87 499.23,98.40,19.87"/>
    </edge>
    <edge id=":F1_4" function="internal">
        <lane id=":F1_4_0" index="0" speed="8.02" length="14.20" shape="493.66,92.79,19.87 493.09,96.64,19.87 491.43,99.40,19.87 488.67,101.05,19.87 484.83,101.60,19.87"/>
    </edge>
    <edge id=":F1_5" function="internal">
        <lane id=":F1_5_0" index="0" speed="3.65" length="4.67" shape="493.66,92.79,19.87 492.85,93.98,19.87 492.05,94.38,19.87 491.25,93.97,19.87 490.46,92.77,19.87"/>
    </edge>
    <edge id=":F1_6" function="internal">
        <lane id=":F1_6_0" index="0" speed="6.53" length="9.06" shape="484.83,98.40,19.87 487.28,98.05,19.87 489.04,96.99,19.87 490.09,95.23,19.87 490.46,92.77,19.87"/>
    </edge>
    <edge id=":F1_7" function="internal">
        <lane id=":F1_7_0" index="0" speed="13.89" length="14.40" shape="484.83,98.40,19.87 499.23,98.40,19.87"/>
    </edge>
    <edge id=":F1_8" function="internal">
        <lane id=":F1_8_0" index="0" speed="3.65" length="2.34" shape="484.83,98.40,19.87 486.03,99.20,19.87 486.43,100.00,19.87"/>
    </edge>
    <edge id=":F1_11" function="internal">
        <lane id=":F1_11_0" index="0" speed="3.65" length="2.34" shape="486.43,100.00,19.87 486.03,100.80,19.87 484.83,101.60,19.87"/>
    </edge>
    <edge id=":G0_0" function="internal">
        <lane id=":G0_0_0" index="0" speed="6.94" length="9.58" shape="603.05,7.67,-9.32 602.43,5.02,-9.32 601.21,3.12,-9.32 599.39,1.98,-9.32 596.97,1.60,-9.32"/>
    </edge>
    <edge id=":G0_1" function="internal">
        <lane id=":G0_1_0" index="0" speed="7.83" length="14.60" shape="603.05,7.67,-9.32 603.21,3.62,-9.32 604.66,0.72,-9.32 607.39,-1.02,-9.32 611.41,-1.60,-9.32"/>
    </edge>
    <edge id=":G0_2" function="internal">
        <lane id=":G0_2_0" index="0" speed="3.65" length="4.67" shape="603.05,7.67,-9.32 603.72,6.40,-9.32 604.47,5.92,-9.32 605.31,6.23,-9.32 606.23,7.34,-9.32"/>
    </edge>
    <edge id=":G0_3" function="internal">
        <lane id=":G0_3_0" index="0" speed="6.29" length="9.04" shape="611.41,1.60,-9.32 608.92,1.96,-9.32 607.23,3.04,-9.32 606.33,4.83,-9.32 606.23,7.34,-9.32"/>
    </edge>
    <edge id=":G0_4" function="internal">
        <lane id=":G0_4_0" index="0" speed="13.89" length="14.43" shape="611.41,1.60,-9.32 596.97,1.60,-9.32"/>
    </edge>
    <edge id=":G0_5" function="internal">
        <lane id=":G0_5_0" index="0" speed="3.65" length="2.34" shape="611.41,1.60,-9.32 610.21,0.80,-9.32 609.81,0.00,-9.32"/>
    </edge>
    <edge id=":G0_9" function="internal">
        <lane id=":G0_9_0" index="0" speed="3.65" length="2.34" shape="609.81,0.00,-9.32 610.21,-0.80,-9.32 611.41,-1.60,-9.32"/>
    </edge>
    <edge id=":G0_6" function="internal">
        <lane id=":G0_6_0" index="0" speed="13.89" length="14.43" shape="596.97,-1.60,-9.32 611.41,-1.60,-9.32"/>
    </edge>
    <edge id=":G0_7" function="internal">
        <lane id=":G0_7_0" index="0" speed="8.36" length="5.76" shape="596.97,-1.60,-9.32 600.68,-1.04,-9.32 602.40,-0.00,-9.32"/>
    </edge>
    <edge id=":G0_8" function="internal">
        <lane id=":G0_8_0" index="0" speed="3.65" length="2.34" shape="596.97,-1.60,-9.32 598.17,-0.80,-9.32 598.57,0.00,-9.32"/>
    </edge>
    <edge id=":G0_10" function="internal">
        <lane id=":G0_10_0" index="0" speed="8.36" length="8.60" shape="602.40,-0.00,-9.32 603.45,0.64,-9.32 605.30,3.43,-9.32 606.23,7.34,-9.32"/>
    </edge>
    <edge id=":G0_11" function="internal">
        <lane id=":G0_11_0" index="0" speed="3.65" length="2.34" shape="598.57,0.00,-9.32 598.17,0.80,-9.32 596.97,1.60,-9.32"/>
    </edge>
    <edge id=":G1_0" function="internal">
        <lane id=":G1_0_0" index="0" speed="13.89" length="14.43" shape="621.12,101.60,-9.26 606.68,101.60,-9.26"/>
    </edge>
    <edge id=":G1_1" function="internal">
        <lane id=":G1_1_0" index="0" speed="8.36" length="5.76" shape="621.12,101.60,-9.26 617.42,101.04,-9.26 615.69,100.00,-9.26"/>
    </edge>
    <edge id=":G1_2" function="internal">
        <lane id=":G1_2_0" index="0" speed="3.65" length="2.34" shape="621.12,101.60,-9.26 619.92,100.80,-9.26 619.52,100.00,-9.26"/>
    </edge>
    <edge id=":G1_9" function="internal">
        <lane id=":G1_9_0" index="0" speed="8.36" length="8.60" shape="615.69,100.00,-9.26 614.64,99.36,-9.26 612.79,96.57,-9.26 611.86,92.66,-9.26"/>
    </edge>
    <edge id=":G1_10" function="internal">
        <lane id=":G1_10_0" index="0" speed="3.65" length="2.34" shape="619.52,100.00,-9.26 619.92,99.20,-9.26 621.12,98.40,-9.26"/>
    </edge>
    <edge id=":G1_3" function="internal">
        <lane id=":G1_3_0" index="0" speed="6.94" length="9.58" shape="615.05,92.33,-9.26 615.66,94.98,-9.26 616.88,96.88,-9.26 618.70,98.02,-9.26 621.12,98.40,-9.26"/>
    </edge>
    <edge id=":G1_4" function="internal">
        <lane id=":G1_4_0" index="0" speed="7.83" length="14.60" shape="615.05,92.33,-9.26 614.88,96.38,-9.26 613.44,99.28,-9.26 610.70,101.02,-9.26 606.68,101.60,-9.26"/>
    </edge>
    <edge id=":G1_5" function="internal">
        <lane id=":G1_5_0" index="0" speed="3.65" length="4.67" shape="615.05,92.33,-9.26 614.37,93.60,-9.26 613.62,94.08,-9.26 612.78,93.77,-9.26 611.86,92.66,-9.26"/>
    </edge>
    <edge id=":G1_6" function="internal">
        <lane id=":G1_6_0" index="0" speed="6.29" length="9.04" shape="606.68,98.40,-9.26 609.17,98.04,-9.26 610.87,96.96,-9.26 611.76,95.17,-9.26 611.86,92.66,-9.26"/>
    </edge>
    <edge id=":G1_7" function="internal">
        <lane id=":G1_7_0" index="0" speed="13.89" length="14.43" shape="606.68,98.40,-9.26 621.12,98.40,-9.26"/>
    </edge>
    <edge id=":G1_8" function="internal">