<?xml version="1.0" encoding="UTF-8"?>

<!-- generated on 07/28/20 19:11:42 by Eclipse SUMO netgenerate Version 1.5.0
<configuration xmlns:xsi="http://www.w3.org/2001/XMLSchema-instance" xsi:noNamespaceSchemaLocation="http://sumo.dlr.de/xsd/netgenerateConfiguration.xsd">

    <grid_network>
        <grid value="true"/>
        <grid.x-number value="21"/>
        <grid.y-number value="2"/>
    </grid_network>

    <output>
        <output-file value="4.net.xml"/>
    </output>

    <processing>
        <perturb-z value="25"/>
    </processing>

    <building_defaults>
        <default.speed value="100"/>
    </building_defaults>

    <random_number>
        <seed value="9022593"/>
    </random_number>

</configuration>
-->

<net version="1.3" junctionCornerDetail="5" limitTurnSpeed="5.50" xmlns:xsi="http://www.w3.org/2001/XMLSchema-instance" xsi:noNamespaceSchemaLocation="http://sumo.dlr.de/xsd/net_file.xsd">

    <location netOffset="0.00,0.00" convBoundary="0.00,0.00,2000.00,100.00" origBoundary="0.00,0.00,2000.00,100.00" projParameter="!"/>

    <edge id=":A0_0" function="internal">
        <lane id=":A0_0_0" index="0" speed="6.08" length="7.96" shape="-1.60,3.20,-24.93 -1.30,1.10,-25.44 -0.40,-0.40,-25.86 1.10,-1.30,-26.28 3.20,-1.60,-26.78"/>
    </edge>
    <edge id=":A0_1" function="internal">
        <lane id=":A0_1_0" index="0" speed="3.90" length="3.19" shape="3.20,1.60,-26.81 2.50,1.70,-26.30 2.00,2.00,-25.87 1.70,2.50,-25.45 1.60,3.20,-24.93"/>
    </edge>
    <edge id=":A1_0" function="internal">
        <lane id=":A1_0_0" index="0" speed="6.08" length="7.90" shape="3.20,101.60,20.82 1.10,101.30,20.39 -0.40,100.40,20.04 -1.30,98.90,19.69 -1.60,96.80,19.26"/>
    </edge>
    <edge id=":A1_1" function="internal">
        <lane id=":A1_1_0" index="0" speed="3.90" length="3.01" shape="1.60,96.80,19.26 1.70,97.50,19.69 2.00,98.00,20.04 2.50,98.30,20.39 3.20,98.40,20.82"/>
    </edge>
    <edge id=":B0_0" function="internal">
        <lane id=":B0_0_0" index="0" speed="6.51" length="9.03" shape="98.40,7.20,-37.13 98.05,4.75,-37.13 97.00,3.00,-37.13 95.25,1.95,-37.13 92.80,1.60,-37.13"/>
    </edge>
    <edge id=":B0_1" function="internal">
        <lane id=":B0_1_0" index="0" speed="8.00" length="14.19" shape="98.40,7.20,-37.13 98.95,3.35,-37.13 100.60,0.60,-37.13 103.35,-1.05,-37.13 107.20,-1.60,-37.13"/>
    </edge>
    <edge id=":B0_2" function="internal">
        <lane id=":B0_2_0" index="0" speed="3.65" length="4.67" shape="98.40,7.20,-37.13 99.20,6.00,-37.13 100.00,5.60,-37.13 100.80,6.00,-37.13 101.60,7.20,-37.13"/>
    </edge>
    <edge id=":B0_3" function="internal">
        <lane id=":B0_3_0" index="0" speed="6.51" length="9.03" shape="107.20,1.60,-37.13 104.75,1.95,-37.13 103.00,3.00,-37.13 101.95,4.75,-37.13 101.60,7.20,-37.13"/>
    </edge>
    <edge id=":B0_4" function="internal">
        <lane id=":B0_4_0" index="0" speed="100.00" length="14.40" shape="107.20,1.60,-37.13 92.80,1.60,-37.13"/>
    </edge>
    <edge id=":B0_5" function="internal">
        <lane id=":B0_5_0" index="0" speed="3.65" length="2.34" shape="107.20,1.60,-37.13 106.00,0.80,-37.13 105.60,-0.00,-37.13"/>
    </edge>
    <edge id=":B0_9" function="internal">
        <lane id=":B0_9_0" index="0" speed="3.65" length="2.34" shape="105.60,-0.00,-37.13 106.00,-0.80,-37.13 107.20,-1.60,-37.13"/>
    </edge>
    <edge id=":B0_6" function="internal">
        <lane id=":B0_6_0" index="0" speed="100.00" length="14.40" shape="92.80,-1.60,-37.13 107.20,-1.60,-37.13"/>
    </edge>
    <edge id=":B0_7" function="internal">
        <lane id=":B0_7_0" index="0" speed="8.00" length="5.93" shape="92.80,-1.60,-37.13 96.65,-1.05,-37.13 98.40,0.00,-37.13"/>
    </edge>
    <edge id=":B0_8" function="internal">
        <lane id=":B0_8_0" index="0" speed="3.65" length="2.34" shape="92.80,-1.60,-37.13 94.00,-0.80,-37.13 94.40,0.00,-37.13"/>
    </edge>
    <edge id=":B0_10" function="internal">
        <lane id=":B0_10_0" index="0" speed="8.00" length="8.26" shape="98.40,0.00,-37.13 99.40,0.60,-37.13 101.05,3.35,-37.13 101.60,7.20,-37.13"/>
    </edge>
    <edge id=":B0_11" function="internal">
        <lane id=":B0_11_0" index="0" speed="3.65" length="2.34" shape="94.40,0.00,-37.13 94.00,0.80,-37.13 92.80,1.60,-37.13"/>
    </edge>
    <edge id=":B1_0" function="internal">
        <lane id=":B1_0_0" index="0" speed="100.00" length="14.40" shape="107.20,101.60,22.23 92.80,101.60,22.13"/>
    </edge>
    <edge id=":B1_1" function="internal">
        <lane id=":B1_1_0" index="0" speed="8.00" length="5.93" shape="107.20,101.60,22.23 103.35,101.05,22.23 101.60,100.00,22.23"/>
    </edge>
    <edge id=":B1_2" function="internal">
        <lane id=":B1_2_0" index="0" speed="3.65" length="2.34" shape="107.20,101.60,22.23 106.00,100.80,22.23 105.60,100.00,22.23"/>
    </edge>
    <edge id=":B1_9" function="internal">
        <lane id=":B1_9_0" index="0" speed="8.00" length="8.26" shape="101.60,100.00,22.23 100.60,99.40,22.23 98.95,96.65,22.23 98.40,92.80,22.23"/>
    </edge>
    <edge id=":B1_10" function="internal">
        <lane id=":B1_10_0" index="0" speed="3.65" length="2.34" shape="105.60,100.00,22.23 106.00,99.20,22.23 107.20,98.40,22.23"/>
    </edge>
    <edge id=":B1_3" function="internal">
        <lane id=":B1_3_0" index="0" speed="6.51" length="9.03" shape="101.60,92.80,22.23 101.95,95.25,22.23 103.00,97.00,22.23 104.75,98.05,22.23 107.20,98.40,22.23"/>
    </edge>
    <edge id=":B1_4" function="internal">
        <lane id=":B1_4_0" index="0" speed="8.00" length="14.19" shape="101.60,92.80,22.23 101.05,96.65,22.20 99.40,99.40,22.18 96.65,101.05,22.16 92.80,101.60,22.13"/>
    </edge>
    <edge id=":B1_5" function="internal">
        <lane id=":B1_5_0" index="0" speed="3.65" length="4.67" shape="101.60,92.80,22.23 100.80,94.00,22.23 100.00,94.40,22.23 99.20,94.00,22.23 98.40,92.80,22.23"/>
    </edge>
    <edge id=":B1_6" function="internal">
        <lane id=":B1_6_0" index="0" speed="6.51" length="9.03" shape="92.80,98.40,22.13 95.25,98.05,22.16 97.00,97.00,22.18 98.05,95.25,22.20 98.40,92.80,22.23"/>
    </edge>
    <edge id=":B1_7" function="internal">
        <lane id=":B1_7_0" index="0" speed="100.00" length="14.40" shape="92.80,98.40,22.13 107.20,98.40,22.23"/>
    </edge>
    <edge id=":B1_8" function="internal">
        <lane id=":B1_8_0" index="0" speed="3.65" length="2.34" shape="92.80,98.40,22.13 94.00,99.20,22.13 94.40,100.00,22.13"/>
    </edge>
    <edge id=":B1_11" function="internal">
        <lane id=":B1_11_0" index="0" speed="3.65" length="2.34" shape="94.40,100.00,22.13 94.00,100.80,22.13 92.80,101.60,22.13"/>
    </edge>
    <edge id=":C0_0" function="internal">
        <lane id=":C0_0_0" index="0" speed="6.51" length="9.03" shape="198.40,7.20,41.17 198.05,4.75,41.17 197.00,3.00,41.17 195.25,1.95,41.17 192.80,1.60,41.17"/>
    </edge>
    <edge id=":C0_1" function="internal">
        <lane id=":C0_1_0" index="0" speed="8.00" length="14.19" shape="198.40,7.20,41.17 198.95,3.35,41.17 200.60,0.60,41.17 203.35,-1.05,41.17 207.20,-1.60,41.17"/>
    </edge>
    <edge id=":C0_2" function="internal">
        <lane id=":C0_2_0" index="0" speed="3.65" length="4.67" shape="198.40,7.20,41.17 199.20,6.00,41.17 200.00,5.60,41.17 200.80,6.00,41.17 201.60,7.20,41.17"/>
    </edge>
    <edge id=":C0_3" function="internal">
        <lane id=":C0_3_0" index="0" speed="6.51" length="9.03" shape="207.20,1.60,41.17 204.75,1.95,41.17 203.00,3.00,41.17 201.95,4.75,41.17 201.60,7.20,41.17"/>
    </edge>
    <edge id=":C0_4" function="internal">
        <lane id=":C0_4_0" index="0" speed="100.00" length="14.40" shape="207.20,1.60,41.17 192.80,1.60,41.17"/>
    </edge>
    <edge id=":C0_5" function="internal">
        <lane id=":C0_5_0" index="0" speed="3.65" length="2.34" shape="207.20,1.60,41.17 206.00,0.80,41.17 205.60,0.00,41.17"/>
    </edge>
    <edge id=":C0_9" function="internal">
        <lane id=":C0_9_0" index="0" speed="3.65" length="2.34" shape="205.60,0.00,41.17 206.00,-0.80,41.17 207.20,-1.60,41.17"/>
    </edge>
    <edge id=":C0_6" function="internal">
        <lane id=":C0_6_0" index="0" speed="100.00" length="14.40" shape="192.80,-1.60,41.17 207.20,-1.60,41.17"/>
    </edge>
    <edge id=":C0_7" function="internal">
        <lane id=":C0_7_0" index="0" speed="8.00" length="5.93" shape="192.80,-1.60,41.17 196.65,-1.05,41.17 198.40,0.00,41.17"/>
    </edge>
    <edge id=":C0_8" function="internal">
        <lane id=":C0_8_0" index="0" speed="3.65" length="2.34" shape="192.80,-1.60,41.17 194.00,-0.80,41.17 194.40,0.00,41.17"/>
    </edge>
    <edge id=":C0_10" function="internal">
        <lane id=":C0_10_0" index="0" speed="8.00" length="8.26" shape="198.40,0.00,41.17 199.40,0.60,41.17 201.05,3.35,41.17 201.60,7.20,41.17"/>
    </edge>
    <edge id=":C0_11" function="internal">
        <lane id=":C0_11_0" index="0" speed="3.65" length="2.34" shape="194.40,0.00,41.17 194.00,0.80,41.17 192.80,1.60,41.17"/>
    </edge>
    <edge id=":C1_0" function="internal">
        <lane id=":C1_0_0" index="0" speed="100.00" length="14.40" shape="207.20,101.60,-50.79 192.80,101.60,-50.79"/>
    </edge>
    <edge id=":C1_1" function="internal">
        <lane id=":C1_1_0" index="0" speed="8.00" length="5.93" shape="207.20,101.60,-50.79 203.35,101.05,-50.79 201.60,100.00,-50.79"/>
    </edge>
    <edge id=":C1_2" function="internal">
        <lane id=":C1_2_0" index="0" speed="3.65" length="2.34" shape="207.20,101.60,-50.79 206.00,100.80,-50.79 205.60,100.00,-50.79"/>
    </edge>
    <edge id=":C1_9" function="internal">
        <lane id=":C1_9_0" index="0" speed="8.00" length="8.26" shape="201.60,100.00,-50.79 200.60,99.40,-50.79 198.95,96.65,-50.79 198.40,92.80,-50.79"/>
    </edge>
    <edge id=":C1_10" function="internal">
        <lane id=":C1_10_0" index="0" speed="3.65" length="2.34" shape="205.60,100.00,-50.79 206.00,99.20,-50.79 207.20,98.40,-50.79"/>
    </edge>
    <edge id=":C1_3" function="internal">
        <lane id=":C1_3_0" index="0" speed="6.51" length="9.03" shape="201.60,92.80,-50.79 201.95,95.25,-50.79 203.00,97.00,-50.79 204.75,98.05,-50.79 207.20,98.40,-50.79"/>
    </edge>
    <edge id=":C1_4" function="internal">
        <lane id=":C1_4_0" index="0" speed="8.00" length="14.19" shape="201.60,92.80,-50.79 201.05,96.65,-50.79 199.40,99.40,-50.79 196.65,101.05,-50.79 192.80,101.60,-50.79"/>
    </edge>
    <edge id=":C1_5" function="internal">
        <lane id=":C1_5_0" index="0" speed="3.65" length="4.67" shape="201.60,92.80,-50.79 200.80,94.00,-50.79 200.00,94.40,-50.79 199.20,94.00,-50.79 198.40,92.80,-50.79"/>
    </edge>
    <edge id=":C1_6" function="internal">
        <lane id=":C1_6_0" index="0" speed="6.51" length="9.03" shape="192.80,98.40,-50.79 195.25,98.05,-50.79 197.00,97.00,-50.79 198.05,95.25,-50.79 198.40,92.80,-50.79"/>
    </edge>
    <edge id=":C1_7" function="internal">
        <lane id=":C1_7_0" index="0" speed="100.00" length="14.40" shape="192.80,98.40,-50.79 207.20,98.40,-50.79"/>
    </edge>
    <edge id=":C1_8" function="internal">
        <lane id=":C1_8_0" index="0" speed="3.65" length="2.34" shape="192.80,98.40,-50.79 194.00,99.20,-50.79 194.40,100.00,-50.79"/>
    </edge>
    <edge id=":C1_11" function="internal">
        <lane id=":C1_11_0" index="0" speed="3.65" length="2.34" shape="194.40,100.00,-50.79 194.00,100.80,-50.79 192.80,101.60,-50.79"/>
    </edge>
    <edge id=":D0_0" function="internal">
        <lane id=":D0_0_0" index="0" speed="6.51" length="9.03" shape="298.40,7.20,-17.51 298.05,4.75,-17.51 297.00,3.00,-17.51 295.25,1.95,-17.51 292.80,1.60,-17.51"/>
    </edge>
    <edge id=":D0_1" function="internal">
        <lane id=":D0_1_0" index="0" speed="8.00" length="14.19" shape="298.40,7.20,-17.51 298.95,3.35,-17.51 300.60,0.60,-17.51 303.35,-1.05,-17.51 307.20,-1.60,-17.51"/>
    </edge>
    <edge id=":D0_2" function="internal">
        <lane id=":D0_2_0" index="0" speed="3.65" length="4.67" shape="298.40,7.20,-17.51 299.20,6.00,-17.51 300.00,5.60,-17.51 300.80,6.00,-17.51 301.60,7.20,-17.51"/>
    </edge>
    <edge id=":D0_3" function="internal">
        <lane id=":D0_3_0" index="0" speed="6.51" length="9.03" shape="307.20,1.60,-17.51 304.75,1.95,-17.51 303.00,3.00,-17.51 301.95,4.75,-17.51 301.60,7.20,-17.51"/>
    </edge>
    <edge id=":D0_4" function="internal">
        <lane id=":D0_4_0" index="0" speed="100.00" length="14.40" shape="307.20,1.60,-17.51 292.80,1.60,-17.51"/>
    </edge>
    <edge id=":D0_5" function="internal">
        <lane id=":D0_5_0" index="0" speed="3.65" length="2.34" shape="307.20,1.60,-17.51 306.00,0.80,-17.51 305.60,0.00,-17.51"/>
    </edge>
    <edge id=":D0_9" function="internal">
        <lane id=":D0_9_0" index="0" speed="3.65" length="2.34" shape="305.60,0.00,-17.51 306.00,-0.80,-17.51 307.20,-1.60,-17.51"/>
    </edge>
    <edge id=":D0_6" function="internal">
        <lane id=":D0_6_0" index="0" speed="100.00" length="14.40" shape="292.80,-1.60,-17.51 307.20,-1.60,-17.51"/>
    </edge>
    <edge id=":D0_7" function="internal">
        <lane id=":D0_7_0" index="0" speed="8.00" length="5.93" shape="292.80,-1.60,-17.51 296.65,-1.05,-17.51 298.40,-0.00,-17.51"/>
    </edge>
    <edge id=":D0_8" function="internal">
        <lane id=":D0_8_0" index="0" speed="3.65" length="2.34" shape="292.80,-1.60,-17.51 294.00,-0.80,-17.51 294.40,0.00,-17.51"/>
    </edge>
    <edge id=":D0_10" function="internal">
        <lane id=":D0_10_0" index="0" speed="8.00" length="8.26" shape="298.40,-0.00,-17.51 299.40,0.60,-17.51 301.05,3.35,-17.51 301.60,7.20,-17.51"/>
    </edge>
    <edge id=":D0_11" function="internal">
        <lane id=":D0_11_0" index="0" speed="3.65" length="2.34" shape="294.40,0.00,-17.51 294.00,0.80,-17.51 292.80,1.60,-17.51"/>
    </edge>
    <edge id=":D1_0" function="internal">
        <lane id=":D1_0_0" index="0" speed="100.00" length="14.40" shape="307.20,101.60,-27.92 292.80,101.60,-27.92"/>
    </edge>
    <edge id=":D1_1" function="internal">
        <lane id=":D1_1_0" index="0" speed="8.00" length="5.93" shape="307.20,101.60,-27.92 303.35,101.05,-27.92 301.60,100.00,-27.92"/>
    </edge>
    <edge id=":D1_2" function="internal">
        <lane id=":D1_2_0" index="0" speed="3.65" length="2.34" shape="307.20,101.60,-27.92 306.00,100.80,-27.92 305.60,100.00,-27.92"/>
    </edge>
    <edge id=":D1_9" function="internal">
        <lane id=":D1_9_0" index="0" speed="8.00" length="8.26" shape="301.60,100.00,-27.92 300.60,99.40,-27.92 298.95,96.65,-27.92 298.40,92.80,-27.92"/>
    </edge>
    <edge id=":D1_10" function="internal">
        <lane id=":D1_10_0" index="0" speed="3.65" length="2.34" shape="305.60,100.00,-27.92 306.00,99.20,-27.92 307.20,98.40,-27.92"/>
    </edge>
    <edge id=":D1_3" function="internal">
        <lane id=":D1_3_0" index="0" speed="6.51" length="9.03" shape="301.60,92.80,-27.92 301.95,95.25,-27.92 303.00,97.00,-27.92 304.75,98.05,-27.92 307.20,98.40,-27.92"/>
    </edge>
    <edge id=":D1_4" function="internal">
        <lane id=":D1_4_0" index="0" speed="8.00" length="14.19" shape="301.60,92.80,-27.92 301.05,96.65,-27.92 299.40,99.40,-27.92 296.65,101.05,-27.92 292.80,101.60,-27.92"/>
    </edge>
    <edge id=":D1_5" function="internal">
        <lane id=":D1_5_0" index="0" speed="3.65" length="4.67" shape="301.60,92.80,-27.92 300.80,94.00,-27.92 300.00,94.40,-27.92 299.20,94.00,-27.92 298.40,92.80,-27.92"/>
    </edge>
    <edge id=":D1_6" function="internal">
        <lane id=":D1_6_0" index="0" speed="6.51" length="9.03" shape="292.80,98.40,-27.92 295.25,98.05,-27.92 297.00,97.00,-27.92 298.05,95.25,-27.92 298.40,92.80,-27.92"/>
    </edge>
    <edge id=":D1_7" function="internal">
        <lane id=":D1_7_0" index="0" speed="100.00" length="14.40" shape="292.80,98.40,-27.92 307.20,98.40,-27.92"/>
    </edge>
    <edge id=":D1_8" function="internal">
        <lane id=":D1_8_0" index="0" speed="3.65" length="2.34" shape="292.80,98.40,-27.92 294.00,99.20,-27.92 294.40,100.00,-27.92"/>
    </edge>
    <edge id=":D1_11" function="internal">
        <lane id=":D1_11_0" index="0" speed="3.65" length="2.34" shape="294.40,100.00,-27.92 294.00,100.80,-27.92 292.80,101.60,-27.92"/>
    </edge>
    <edge id=":E0_0" function="internal">
        <lane id=":E0_0_0" index="0" speed="6.51" length="9.03" shape="398.40,7.20,-12.89 398.05,4.75,-12.89 397.00,3.00,-12.89 395.25,1.95,-12.89 392.80,1.60,-12.89"/>
    </edge>
    <edge id=":E0_1" function="internal">
        <lane id=":E0_1_0" index="0" speed="8.00" length="14.19" shape="398.40,7.20,-12.89 398.95,3.35,-12.89 400.60,0.60,-12.89 403.35,-1.05,-12.89 407.20,-1.60,-12.89"/>
    </edge>
    <edge id=":E0_2" function="internal">
        <lane id=":E0_2_0" index="0" speed="3.65" length="4.67" shape="398.40,7.20,-12.89 399.20,6.00,-12.89 400.00,5.60,-12.89 400.80,6.00,-12.89 401.60,7.20,-12.89"/>
    </edge>
    <edge id=":E0_3" function="internal">
        <lane id=":E0_3_0" index="0" speed="6.51" length="9.03" shape="407.20,1.60,-12.89 404.75,1.95,-12.89 403.00,3.00,-12.89 401.95,4.75,-12.89 401.60,7.20,-12.89"/>
    </edge>
    <edge id=":E0_4" function="internal">
        <lane id=":E0_4_0" index="0" speed="100.00" length="14.40" shape="407.20,1.60,-12.89 392.80,1.60,-12.89"/>
    </edge>
    <edge id=":E0_5" function="internal">
        <lane id=":E0_5_0" index="0" speed="3.65" length="2.34" shape="407.20,1.60,-12.89 406.00,0.80,-12.89 405.60,0.00,-12.89"/>
    </edge>
    <edge id=":E0_9" function="internal">
        <lane id=":E0_9_0" index="0" speed="3.65" length="2.34" shape="405.60,0.00,-12.89 406.00,-0.80,-12.89 407.20,-1.60,-12.89"/>
    </edge>
    <edge id=":E0_6" function="internal">
        <lane id=":E0_6_0" index="0" speed="100.00" length="14.40" shape="392.80,-1.60,-12.89 407.20,-1.60,-12.89"/>
    </edge>
    <edge id=":E0_7" function="internal">
        <lane id=":E0_7_0" index="0" speed="8.00" length="5.93" shape="392.80,-1.60,-12.89 396.65,-1.05,-12.89 398.40,-0.00,-12.89"/>
    </edge>
    <edge id=":E0_8" function="internal">
        <lane id=":E0_8_0" index="0" speed="3.65" length="2.34" shape="392.80,-1.60,-12.89 394.00,-0.80,-12.89 394.40,0.00,-12.89"/>
    </edge>
    <edge id=":E0_10" function="internal">
        <lane id=":E0_10_0" index="0" speed="8.00" length="8.26" shape="398.40,-0.00,-12.89 399.40,0.60,-12.89 401.05,3.35,-12.89 401.60,7.20,-12.89"/>
    </edge>
    <edge id=":E0_11" function="internal">
        <lane id=":E0_11_0" index="0" speed="3.65" length="2.34" shape="394.40,0.00,-12.89 394.00,0.80,-12.89 392.80,1.60,-12.89"/>
    </edge>
    <edge id=":E1_0" function="internal">
        <lane id=":E1_0_0" index="0" speed="100.00" length="14.40" shape="407.20,101.60,8.76 392.80,101.60,8.76"/>
    </edge>
    <edge id=":E1_1" function="internal">
        <lane id=":E1_1_0" index="0" speed="8.00" length="5.93" shape="407.20,101.60,8.76 403.35,101.05,8.76 401.60,100.00,8.76"/>
    </edge>
    <edge id=":E1_2" function="internal">
        <lane id=":E1_2_0" index="0" speed="3.65" length="2.34" shape="407.20,101.60,8.76 406.00,100.80,8.76 405.60,100.00,8.76"/>
    </edge>
    <edge id=":E1_9" function="internal">
        <lane id=":E1_9_0" index="0" speed="8.00" length="8.26" shape="401.60,100.00,8.76 400.60,99.40,8.76 398.95,96.65,8.76 398.40,92.80,8.76"/>
    </edge>
    <edge id=":E1_10" function="internal">
        <lane id=":E1_10_0" index="0" speed="3.65" length="2.34" shape="405.60,100.00,8.76 406.00,99.20,8.76 407.20,98.40,8.76"/>
    </edge>
    <edge id=":E1_3" function="internal">
        <lane id=":E1_3_0" index="0" speed="6.51" length="9.03" shape="401.60,92.80,8.76 401.95,95.25,8.76 403.00,97.00,8.76 404.75,98.05,8.76 407.20,98.40,8.76"/>
    </edge>
    <edge id=":E1_4" function="internal">
        <lane id=":E1_4_0" index="0" speed="8.00" length="14.19" shape="401.60,92.80,8.76 401.05,96.65,8.76 399.40,99.40,8.76 396.65,101.05,8.76 392.80,101.60,8.76"/>
    </edge>
    <edge id=":E1_5" function="internal">
        <lane id=":E1_5_0" index="0" speed="3.65" length="4.67" shape="401.60,92.80,8.76 400.80,94.00,8.76 400.00,94.40,8.76 399.20,94.00,8.76 398.40,92.80,8.76"/>
    </edge>
    <edge id=":E1_6" function="internal">
        <lane id=":E1_6_0" index="0" speed="6.51" length="9.03" shape="392.80,98.40,8.76 395.25,98.05,8.76 397.00,97.00,8.76 398.05,95.25,8.76 398.40,92.80,8.76"/>
    </edge>
    <edge id=":E1_7" function="internal">
        <lane id=":E1_7_0" index="0" speed="100.00" length="14.40" shape="392.80,98.40,8.76 407.20,98.40,8.76"/>
    </edge>
    <edge id=":E1_8" function="internal">
        <lane id=":E1_8_0" index="0" speed="3.65" length="2.34" shape="392.80,98.40,8.76 394.00,99.20,8.76 394.40,100.00,8.76"/>
    </edge>
    <edge id=":E1_11" function="internal">
        <lane id=":E1_11_0" index="0" speed="3.65" length="2.34" shape="394.40,100.00,8.76 394.00,100.80,8.76 392.80,101.60,8.76"/>
    </edge>
    <edge id=":F0_0" function="internal">
        <lane id=":F0_0_0" index="0" speed="6.51" length="9.03" shape="498.40,7.20,-7.96 498.05,4.75,-7.96 497.00,3.00,-7.96 495.25,1.95,-7.96 492.80,1.60,-7.96"/>
    </edge>
    <edge id=":F0_1" function="internal">
        <lane id=":F0_1_0" index="0" speed="8.00" length="14.19" shape="498.40,7.20,-7.96 498.95,3.35,-7.96 500.60,0.60,-7.96 503.35,-1.05,-7.96 507.20,-1.60,-7.96"/>
    </edge>
    <edge id=":F0_2" function="internal">
        <lane id=":F0_2_0" index="0" speed="3.65" length="4.67" shape="498.40,7.20,-7.96 499.20,6.00,-7.96 500.00,5.60,-7.96 500.80,6.00,-7.96 501.60,7.20,-7.96"/>
    </edge>
    <edge id=":F0_3" function="internal">
        <lane id=":F0_3_0" index="0" speed="6.51" length="9.03" shape="507.20,1.60,-7.96 504.75,1.95,-7.96 503.00,3.00,-7.96 501.95,4.75,-7.96 501.60,7.20,-7.96"/>
    </edge>
    <edge id=":F0_4" function="internal">
        <lane id=":F0_4_0" index="0" speed="100.00" length="14.40" shape="507.20,1.60,-7.96 492.80,1.60,-7.96"/>
    </edge>
    <edge id=":F0_5" function="internal">
        <lane id=":F0_5_0" index="0" speed="3.65" length="2.34" shape="507.20,1.60,-7.96 506.00,0.80,-7.96 505.60,0.00,-7.96"/>
    </edge>
    <edge id=":F0_9" function="internal">
        <lane id=":F0_9_0" index="0" speed="3.65" length="2.34" shape="505.60,0.00,-7.96 506.00,-0.80,-7.96 507.20,-1.60,-7.96"/>
    </edge>
    <edge id=":F0_6" function="internal">
        <lane id=":F0_6_0" index="0" speed="100.00" length="14.40" shape="492.80,-1.60,-7.96 507.20,-1.60,-7.96"/>
    </edge>
    <edge id=":F0_7" function="internal">
        <lane id=":F0_7_0" index="0" speed="8.00" length="5.93" shape="492.80,-1.60,-7.96 496.65,-1.05,-7.96 498.40,-0.00,-7.96"/>
    </edge>
    <edge id=":F0_8" function="internal">
        <lane id=":F0_8_0" index="0" speed="3.65" length="2.34" shape="492.80,-1.60,-7.96 494.00,-0.80,-7.96 494.40,0.00,-7.96"/>
    </edge>
    <edge id=":F0_10" function="internal">
        <lane id=":F0_10_0" index="0" speed="8.00" length="8.26" shape="498.40,-0.00,-7.96 499.40,0.60,-7.96 501.05,3.35,-7.96 501.60,7.20,-7.96"/>
    </edge>
    <edge id=":F0_11" function="internal">
        <lane id=":F0_11_0" index="0" speed="3.65" length="2.34" shape="494.40,0.00,-7.96 494.00,0.80,-7.96 492.80,1.60,-7.96"/>
    </edge>
    <edge id=":F1_0" function="internal">
        <lane id=":F1_0_0" index="0" speed="100.00" length="14.40" shape="507.20,101.60,-12.69 492.80,101.60,-12.69"/>
    </edge>
    <edge id=":F1_1" function="internal">
        <lane id=":F1_1_0" index="0" speed="8.00" length="5.93" shape="507.20,101.60,-12.69 503.35,101.05,-12.69 501.60,100.00,-12.69"/>
    </edge>
    <edge id=":F1_2" function="internal">
        <lane id=":F1_2_0" index="0" speed="3.65" length="2.34" shape="507.20,101.60,-12.69 506.00,100.80,-12.69 505.60,100.00,-12.69"/>
    </edge>
    <edge id=":F1_9" function="internal">
        <lane id=":F1_9_0" index="0" speed="8.00" length="8.26" shape="501.60,100.00,-12.69 500.60,99.40,-12.69 498.95,96.65,-12.69 498.40,92.80,-12.69"/>
    </edge>
    <edge id=":F1_10" function="internal">
        <lane id=":F1_10_0" index="0" speed="3.65" length="2.34" shape="505.60,100.00,-12.69 506.00,99.20,-12.69 507.20,98.40,-12.69"/>
    </edge>
    <edge id=":F1_3" function="internal">
        <lane id=":F1_3_0" index="0" speed="6.51" length="9.03" shape="501.60,92.80,-12.69 501.95,95.25,-12.69 503.00,97.00,-12.69 504.75,98.05,-12.69 507.20,98.40,-12.69"/>
    </edge>
    <edge id=":F1_4" function="internal">
        <lane id=":F1_4_0" index="0" speed="8.00" length="14.19" shape="501.60,92.80,-12.69 501.05,96.65,-12.69 499.40,99.40,-12.69 496.65,101.05,-12.69 492.80,101.60,-12.69"/>
    </edge>
    <edge id=":F1_5" function="internal">
        <lane id=":F1_5_0" index="0" speed="3.65" length="4.67" shape="501.60,92.80,-12.69 500.80,94.00,-12.69 500.00,94.40,-12.69 499.20,94.00,-12.69 498.40,92.80,-12.69"/>
    </edge>
    <edge id=":F1_6" function="internal">
        <lane id=":F1_6_0" index="0" speed="6.51" length="9.03" shape="492.80,98.40,-12.69 495.25,98.05,-12.69 497.00,97.00,-12.69 498.05,95.25,-12.69 498.40,92.80,-12.69"/>
    </edge>
    <edge id=":F1_7" function="internal">
        <lane id=":F1_7_0" index="0" speed="100.00" length="14.40" shape="492.80,98.40,-12.69 507.20,98.40,-12.69"/>
    </edge>
    <edge id=":F1_8" function="internal">
        <lane id=":F1_8_0" index="0" speed="3.65" length="2.34" shape="492.80,98.40,-12.69 494.00,99.20,-12.69 494.40,100.00,-12.69"/>
    </edge>
    <edge id=":F1_11" function="internal">
        <lane id=":F1_11_0" index="0" speed="3.65" length="2.34" shape="494.40,100.00,-12.69 494.00,100.80,-12.69 492.80,101.60,-12.69"/>
    </edge>
    <edge id=":G0_0" function="internal">
        <lane id=":G0_0_0" index="0" speed="6.51" length="9.03" shape="598.40,7.20,25.57 598.05,4.75,25.57 597.00,3.00,25.57 595.25,1.95,25.57 592.80,1.60,25.57"/>
    </edge>
    <edge id=":G0_1" function="internal">
        <lane id=":G0_1_0" index="0" speed="8.00" length="14.19" shape="598.40,7.20,25.57 598.95,3.35,25.57 600.60,0.60,25.57 603.35,-1.05,25.57 607.20,-1.60,25.57"/>
    </edge>
    <edge id=":G0_2" function="internal">
        <lane id=":G0_2_0" index="0" speed="3.65" length="4.67" shape="598.40,7.20,25.57 599.20,6.00,25.57 600.00,5.60,25.57 600.80,6.00,25.57 601.60,7.20,25.57"/>
    </edge>
    <edge id=":G0_3" function="internal">
        <lane id=":G0_3_0" index="0" speed="6.51" length="9.03" shape="607.20,1.60,25.57 604.75,1.95,25.57 603.00,3.00,25.57 601.95,4.75,25.57 601.60,7.20,25.57"/>
    </edge>
    <edge id=":G0_4" function="internal">
        <lane id=":G0_4_0" index="0" speed="100.00" length="14.40" shape="607.20,1.60,25.57 592.80,1.60,25.57"/>
    </edge>
    <edge id=":G0_5" function="internal">
        <lane id=":G0_5_0" index="0" speed="3.65" length="2.34" shape="607.20,1.60,25.57 606.00,0.80,25.57 605.60,0.00,25.57"/>
    </edge>
    <edge id=":G0_9" function="internal">
        <lane id=":G0_9_0" index="0" speed="3.65" length="2.34" shape="605.60,0.00,25.57 606.00,-0.80,25.57 607.20,-1.60,25.57"/>
    </edge>
    <edge id=":G0_6" function="internal">
        <lane id=":G0_6_0" index="0" speed="100.00" length="14.40" shape="592.80,-1.60,25.57 607.20,-1.60,25.57"/>
    </edge>
    <edge id=":G0_7" function="internal">
        <lane id=":G0_7_0" index="0" speed="8.00" length="5.93" shape="592.80,-1.60,25.57 596.65,-1.05,25.57 598.40,0.00,25.57"/>
    </edge>
    <edge id=":G0_8" function="internal">
        <lane id=":G0_8_0" index="0" speed="3.65" length="2.34" shape="592.80,-1.60,25.57 594.00,-0.80,25.57 594.40,0.00,25.57"/>
    </edge>
    <edge id=":G0_10" function="internal">
        <lane id=":G0_10_0" index="0" speed="8.00" length="8.26" shape="598.40,0.00,25.57 599.40,0.60,25.57 601.05,3.35,25.57 601.60,7.20,25.57"/>
    </edge>
    <edge id=":G0_11" function="internal">
        <lane id=":G0_11_0" index="0" speed="3.65" length="2.34" shape="594.40,0.00,25.57 594.00,0.80,25.57 592.80,1.60,25.57"/>
    </edge>
    <edge id=":G1_0" function="internal">
        <lane id=":G1_0_0" index="0" speed="100.00" length="14.40" shape="607.20,101.60,-6.05 592.80,101.60,-6.05"/>
    </edge>
    <edge id=":G1_1" function="internal">
        <lane id=":G1_1_0" index="0" speed="8.00" length="5.93" shape="607.20,101.60,-6.05 603.35,101.05,-6.05 601.60,100.00,-6.05"/>
    </edge>
    <edge id=":G1_2" function="internal">
        <lane id=":G1_2_0" index="0" speed="3.65" length="2.34" shape="607.20,101.60,-6.05 606.00,100.80,-6.05 605.60,100.00,-6.05"/>
    </edge>
    <edge id=":G1_9" function="internal">
        <lane id=":G1_9_0" index="0" speed="8.00" length="8.26" shape="601.60,100.00,-6.05 600.60,99.40,-6.05 598.95,96.65,-6.05 598.40,92.80,-6.05"/>
    </edge>
    <edge id=":G1_10" function="internal">
        <lane id=":G1_10_0" index="0" speed="3.65" length="2.34" shape="605.60,100.00,-6.05 606.00,99.20,-6.05 607.20,98.40,-6.05"/>
    </edge>
    <edge id=":G1_3" function="internal">
        <lane id=":G1_3_0" index="0" speed="6.51" length="9.03" shape="601.60,92.80,-6.05 601.95,95.25,-6.05 603.00,97.00,-6.05 604.75,98.05,-6.05 607.20,98.40,-6.05"/>
    </edge>
    <edge id=":G1_4" function="internal">
        <lane id=":G1_4_0" index="0" speed="8.00" length="14.19" shape="601.60,92.80,-6.05 601.05,96.65,-6.05 599.40,99.40,-6.05 596.65,101.05,-6.05 592.80,101.60,-6.05"/>
    </edge>
    <edge id=":G1_5" function="internal">
        <lane id=":G1_5_0" index="0" speed="3.65" length="4.67" shape="601.60,92.80,-6.05 600.80,94.00,-6.05 600.00,94.40,-6.05 599.20,94.00,-6.05 598.40,92.80,-6.05"/>
    </edge>
    <edge id=":G1_6" function="internal">
        <lane id=":G1_6_0" index="0" speed="6.51" length="9.03" shape="592.80,98.40,-6.05 595.25,98.05,-6.05 597.00,97.00,-6.05 598.05,95.25,-6.05 598.40,92.80,-6.05"/>
    </edge>
    <edge id=":G1_7" function="internal">
        <lane id=":G1_7_0" index="0" speed="100.00" length="14.40" shape="592.80,98.40,-6.05 607.20,98.40,-6.05"/>
    </edge>