<?xml version="1.0" encoding="UTF-8"?>

<!-- generated on 07/22/20 22:23:40 by Eclipse SUMO netgenerate Version 1.5.0
<configuration xmlns:xsi="http://www.w3.org/2001/XMLSchema-instance" xsi:noNamespaceSchemaLocation="http://sumo.dlr.de/xsd/netgenerateConfiguration.xsd">

    <grid_network>
        <grid value="true"/>
        <grid.x-number value="20"/>
        <grid.y-number value="2"/>
    </grid_network>

    <output>
        <output-file value="5.net.xml"/>
    </output>

    <processing>
        <perturb-x value="23"/>
        <perturb-z value="100"/>
    </processing>

    <random_number>
        <seed value="4310387"/>
    </random_number>

</configuration>
-->

<net version="1.3" junctionCornerDetail="5" limitTurnSpeed="5.50" xmlns:xsi="http://www.w3.org/2001/XMLSchema-instance" xsi:noNamespaceSchemaLocation="http://sumo.dlr.de/xsd/net_file.xsd">

    <location netOffset="26.17,0.00" convBoundary="0.00,0.00,1935.58,100.00" origBoundary="-26.17,0.00,1909.41,100.00" projParameter="!"/>

    <edge id=":A0_0" function="internal">
        <lane id=":A0_0_0" index="0" speed="3.91" length="8.26" shape="4.86,1.60,41.18 4.17,1.70,43.33 3.68,1.99,45.11 3.37,2.48,46.89 3.26,3.17,49.04"/>
    </edge>
    <edge id=":A0_1" function="internal">
        <lane id=":A0_1_0" index="0" speed="6.08" length="10.61" shape="0.06,3.12,49.04 0.39,1.05,47.02 1.30,-0.42,45.36 2.79,-1.31,43.69 4.86,-1.60,41.67"/>
    </edge>
    <edge id=":A1_0" function="internal">
        <lane id=":A1_0_0" index="0" speed="6.08" length="8.88" shape="3.26,101.60,87.17 1.12,101.29,88.31 -0.39,100.38,89.25 -1.28,98.85,90.20 -1.54,96.72,91.34"/>
    </edge>
    <edge id=":A1_1" function="internal">
        <lane id=":A1_1_0" index="0" speed="3.90" length="4.58" shape="1.66,96.77,91.34 1.75,97.48,90.31 2.04,97.99,89.46 2.55,98.30,88.61 3.26,98.40,87.58"/>
    </edge>
    <edge id=":B0_0" function="internal">
        <lane id=":B0_0_0" index="0" speed="7.12" length="9.81" shape="89.68,7.85,-119.43 88.94,5.12,-119.43 87.65,3.16,-119.43 85.79,1.99,-119.43 83.38,1.60,-119.43"/>
    </edge>
    <edge id=":B0_1" function="internal">
        <lane id=":B0_1_0" index="0" speed="7.76" length="14.77" shape="89.68,7.85,-119.43 89.67,3.72,-119.43 91.03,0.76,-119.43 93.76,-1.01,-119.43 97.85,-1.60,-119.43"/>
    </edge>
    <edge id=":B0_2" function="internal">
        <lane id=":B0_2_0" index="0" speed="3.65" length="4.67" shape="89.68,7.85,-119.43 90.30,6.55,-119.43 91.03,6.04,-119.43 91.88,6.32,-119.43 92.84,7.39,-119.43"/>
    </edge>
    <edge id=":B0_3" function="internal">
        <lane id=":B0_3_0" index="0" speed="6.22" length="9.05" shape="97.85,1.60,-119.43 95.34,1.96,-119.43 93.67,3.05,-119.43 92.84,4.86,-119.43 92.84,7.39,-119.43"/>
    </edge>
    <edge id=":B0_4" function="internal">
        <lane id=":B0_4_0" index="0" speed="13.89" length="14.47" shape="97.85,1.60,-119.43 83.38,1.60,-119.43"/>
    </edge>
    <edge id=":B0_5" function="internal">
        <lane id=":B0_5_0" index="0" speed="3.65" length="2.34" shape="97.85,1.60,-119.43 96.65,0.80,-119.43 96.25,0.00,-119.43"/>
    </edge>
    <edge id=":B0_9" function="internal">
        <lane id=":B0_9_0" index="0" speed="3.65" length="2.34" shape="96.25,0.00,-119.43 96.65,-0.80,-119.43 97.85,-1.60,-119.43"/>
    </edge>
    <edge id=":B0_6" function="internal">
        <lane id=":B0_6_0" index="0" speed="13.89" length="14.47" shape="83.38,-1.60,-119.43 97.85,-1.60,-119.43"/>
    </edge>
    <edge id=":B0_7" function="internal">
        <lane id=":B0_7_0" index="0" speed="8.52" length="5.70" shape="83.38,-1.60,-119.43 87.03,-1.04,-119.43 88.75,-0.00,-119.43"/>
    </edge>
    <edge id=":B0_8" function="internal">
        <lane id=":B0_8_0" index="0" speed="3.65" length="2.34" shape="83.38,-1.60,-119.43 84.58,-0.80,-119.43 84.98,0.00,-119.43"/>
    </edge>
    <edge id=":B0_10" function="internal">
        <lane id=":B0_10_0" index="0" speed="8.52" length="8.74" shape="88.75,-0.00,-119.43 89.82,0.65,-119.43 91.76,3.46,-119.43 92.84,7.39,-119.43"/>
    </edge>
    <edge id=":B0_11" function="internal">
        <lane id=":B0_11_0" index="0" speed="3.65" length="2.34" shape="84.98,0.00,-119.43 84.58,0.80,-119.43 83.38,1.60,-119.43"/>
    </edge>
    <edge id=":B1_0" function="internal">
        <lane id=":B1_0_0" index="0" speed="13.89" length="14.47" shape="111.51,101.60,-75.54 97.04,101.60,-75.54"/>
    </edge>
    <edge id=":B1_1" function="internal">
        <lane id=":B1_1_0" index="0" speed="8.52" length="5.70" shape="111.51,101.60,-75.54 107.86,101.04,-75.54 106.14,100.00,-75.54"/>
    </edge>
    <edge id=":B1_2" function="internal">
        <lane id=":B1_2_0" index="0" speed="3.65" length="2.34" shape="111.51,101.60,-75.54 110.31,100.80,-75.54 109.91,100.00,-75.54"/>
    </edge>
    <edge id=":B1_9" function="internal">
        <lane id=":B1_9_0" index="0" speed="8.52" length="8.74" shape="106.14,100.00,-75.54 105.07,99.35,-75.54 103.13,96.54,-75.54 102.05,92.61,-75.54"/>
    </edge>
    <edge id=":B1_10" function="internal">
        <lane id=":B1_10_0" index="0" speed="3.65" length="2.34" shape="109.91,100.00,-75.54 110.31,99.20,-75.54 111.51,98.40,-75.54"/>
    </edge>
    <edge id=":B1_3" function="internal">
        <lane id=":B1_3_0" index="0" speed="7.12" length="9.81" shape="105.21,92.15,-75.54 105.95,94.88,-75.54 107.24,96.84,-75.54 109.09,98.01,-75.54 111.51,98.40,-75.54"/>
    </edge>
    <edge id=":B1_4" function="internal">
        <lane id=":B1_4_0" index="0" speed="7.76" length="14.77" shape="105.21,92.15,-75.54 105.22,96.28,-75.54 103.86,99.24,-75.54 101.13,101.01,-75.54 97.04,101.60,-75.54"/>
    </edge>
    <edge id=":B1_5" function="internal">
        <lane id=":B1_5_0" index="0" speed="3.65" length="4.67" shape="105.21,92.15,-75.54 104.59,93.45,-75.54 103.86,93.96,-75.54 103.01,93.68,-75.54 102.05,92.61,-75.54"/>
    </edge>
    <edge id=":B1_6" function="internal">
        <lane id=":B1_6_0" index="0" speed="6.22" length="9.05" shape="97.04,98.40,-75.54 99.55,98.04,-75.54 101.22,96.95,-75.54 102.05,95.14,-75.54 102.05,92.61,-75.54"/>
    </edge>
    <edge id=":B1_7" function="internal">
        <lane id=":B1_7_0" index="0" speed="13.89" length="14.47" shape="97.04,98.40,-75.54 111.51,98.40,-75.54"/>
    </edge>
    <edge id=":B1_8" function="internal">
        <lane id=":B1_8_0" index="0" speed="3.65" length="2.34" shape="97.04,98.40,-75.54 98.24,99.20,-75.54 98.64,100.00,-75.54"/>
    </edge>
    <edge id=":B1_11" function="internal">
        <lane id=":B1_11_0" index="0" speed="3.65" length="2.34" shape="98.64,100.00,-75.54 98.24,100.80,-75.54 97.04,101.60,-75.54"/>
    </edge>
    <edge id=":C0_0" function="internal">
        <lane id=":C0_0_0" index="0" speed="6.73" length="9.32" shape="202.20,1.60,284.08 199.77,1.97,284.08 197.98,3.07,284.08 196.85,4.90,284.08 196.36,7.46,284.08"/>
    </edge>
    <edge id=":C0_1" function="internal">
        <lane id=":C0_1_0" index="0" speed="13.89" length="14.41" shape="202.20,1.60,284.08 187.79,1.60,284.08"/>
    </edge>
    <edge id=":C0_2" function="internal">
        <lane id=":C0_2_0" index="0" speed="3.65" length="2.34" shape="202.20,1.60,284.08 201.00,0.80,284.08 200.60,0.00,284.08"/>
    </edge>
    <edge id=":C0_9" function="internal">
        <lane id=":C0_9_0" index="0" speed="3.65" length="2.34" shape="200.60,0.00,284.08 201.00,-0.80,284.08 202.20,-1.60,284.08"/>
    </edge>
    <edge id=":C0_3" function="internal">
        <lane id=":C0_3_0" index="0" speed="13.89" length="14.41" shape="187.79,-1.60,284.08 202.20,-1.60,284.08"/>
    </edge>
    <edge id=":C0_4" function="internal">
        <lane id=":C0_4_0" index="0" speed="7.90" length="5.94" shape="187.79,-1.60,284.08 191.73,-1.03,284.08 193.40,0.00,284.08"/>
    </edge>
    <edge id=":C0_5" function="internal">
        <lane id=":C0_5_0" index="0" speed="3.65" length="2.34" shape="187.79,-1.60,284.08 188.99,-0.80,284.08 189.39,0.00,284.08"/>
    </edge>
    <edge id=":C0_10" function="internal">
        <lane id=":C0_10_0" index="0" speed="7.90" length="8.47" shape="193.40,0.00,284.08 194.47,0.67,284.08 196.01,3.50,284.08 196.36,7.46,284.08"/>
    </edge>
    <edge id=":C0_11" function="internal">
        <lane id=":C0_11_0" index="0" speed="3.65" length="2.34" shape="189.39,0.00,284.08 188.99,0.80,284.08 187.79,1.60,284.08"/>
    </edge>
    <edge id=":C0_6" function="internal">
        <lane id=":C0_6_0" index="0" speed="6.39" length="9.04" shape="193.16,7.28,284.08 192.95,4.80,284.08 191.98,3.02,284.08 190.26,1.96,284.08 187.79,1.60,284.08"/>
    </edge>
    <edge id=":C0_7" function="internal">
        <lane id=":C0_7_0" index="0" speed="8.19" length="14.28" shape="193.16,7.28,284.08 193.91,3.40,284.08 195.67,0.62,284.08 198.43,-1.04,284.08 202.20,-1.60,284.08"/>
    </edge>
    <edge id=":C0_8" function="internal">
        <lane id=":C0_8_0" index="0" speed="3.65" length="4.67" shape="193.16,7.28,284.08 194.03,6.13,284.08 194.85,5.78,284.08 195.63,6.22,284.08 196.36,7.46,284.08"/>
    </edge>
    <edge id=":C1_0" function="internal">
        <lane id=":C1_0_0" index="0" speed="13.89" length="14.41" shape="196.95,101.60,-40.37 182.54,101.60,-40.37"/>
    </edge>
    <edge id=":C1_1" function="internal">
        <lane id=":C1_1_0" index="0" speed="7.90" length="5.94" shape="196.95,101.60,-40.37 193.01,101.03,-40.37 191.34,100.00,-40.37"/>
    </edge>
    <edge id=":C1_2" function="internal">
        <lane id=":C1_2_0" index="0" speed="3.65" length="2.34" shape="196.95,101.60,-40.37 195.75,100.80,-40.37 195.35,100.00,-40.37"/>
    </edge>
    <edge id=":C1_9" function="internal">
        <lane id=":C1_9_0" index="0" speed="7.90" length="8.47" shape="191.34,100.00,-40.37 190.27,99.33,-40.37 188.73,96.50,-40.37 188.38,92.54,-40.37"/>
    </edge>
    <edge id=":C1_10" function="internal">
        <lane id=":C1_10_0" index="0" speed="3.65" length="2.34" shape="195.35,100.00,-40.37 195.75,99.20,-40.37 196.95,98.40,-40.37"/>
    </edge>
    <edge id=":C1_3" function="internal">
        <lane id=":C1_3_0" index="0" speed="6.39" length="9.04" shape="191.58,92.72,-40.37 191.79,95.20,-40.37 192.76,96.98,-40.37 194.48,98.04,-40.37 196.95,98.40,-40.37"/>
    </edge>
    <edge id=":C1_4" function="internal">
        <lane id=":C1_4_0" index="0" speed="8.19" length="14.28" shape="191.58,92.72,-40.37 190.83,96.60,-40.37 189.07,99.38,-40.37 186.31,101.04,-40.37 182.54,101.60,-40.37"/>
    </edge>
    <edge id=":C1_5" function="internal">
        <lane id=":C1_5_0" index="0" speed="3.65" length="4.67" shape="191.58,92.72,-40.37 190.71,93.87,-40.37 189.89,94.22,-40.37 189.11,93.78,-40.37 188.38,92.54,-40.37"/>
    </edge>
    <edge id=":C1_6" function="internal">
        <lane id=":C1_6_0" index="0" speed="6.73" length="9.32" shape="182.54,98.40,-40.37 184.97,98.03,-40.37 186.76,96.93,-40.37 187.89,95.10,-40.37 188.38,92.54,-40.37"/>
    </edge>
    <edge id=":C1_7" function="internal">
        <lane id=":C1_7_0" index="0" speed="13.89" length="14.41" shape="182.54,98.40,-40.37 196.95,98.40,-40.37"/>
    </edge>
    <edge id=":C1_8" function="internal">
        <lane id=":C1_8_0" index="0" speed="3.65" length="2.34" shape="182.54,98.40,-40.37 183.74,99.20,-40.37 184.14,100.00,-40.37"/>
    </edge>
    <edge id=":C1_11" function="internal">
        <lane id=":C1_11_0" index="0" speed="3.65" length="2.34" shape="184.14,100.00,-40.37 183.74,100.80,-40.37 182.54,101.60,-40.37"/>
    </edge>
    <edge id=":D0_0" function="internal">
        <lane id=":D0_0_0" index="0" speed="6.83" length="9.44" shape="306.44,7.56,53.14 305.89,4.95,53.14 304.72,3.09,53.14 302.92,1.97,53.14 300.49,1.60,53.14"/>
    </edge>
    <edge id=":D0_1" function="internal">
        <lane id=":D0_1_0" index="0" speed="7.87" length="14.50" shape="306.44,7.56,53.14 306.70,3.55,53.14 308.20,0.69,53.14 310.94,-1.03,53.14 314.91,-1.60,53.14"/>
    </edge>
    <edge id=":D0_2" function="internal">
        <lane id=":D0_2_0" index="0" speed="3.65" length="4.67" shape="306.44,7.56,53.14 307.15,6.30,53.14 307.91,5.84,53.14 308.74,6.18,53.14 309.63,7.31,53.14"/>
    </edge>
    <edge id=":D0_3" function="internal">
        <lane id=":D0_3_0" index="0" speed="6.34" length="9.04" shape="314.91,1.60,53.14 312.43,1.96,53.14 310.73,3.03,53.14 309.79,4.81,53.14 309.63,7.31,53.14"/>
    </edge>
    <edge id=":D0_4" function="internal">
        <lane id=":D0_4_0" index="0" speed="13.89" length="14.42" shape="314.91,1.60,53.14 300.49,1.60,53.14"/>
    </edge>
    <edge id=":D0_5" function="internal">
        <lane id=":D0_5_0" index="0" speed="3.65" length="2.34" shape="314.91,1.60,53.14 313.71,0.80,53.14 313.31,0.00,53.14"/>
    </edge>
    <edge id=":D0_9" function="internal">
        <lane id=":D0_9_0" index="0" speed="3.65" length="2.34" shape="313.31,0.00,53.14 313.71,-0.80,53.14 314.91,-1.60,53.14"/>
    </edge>
    <edge id=":D0_6" function="internal">
        <lane id=":D0_6_0" index="0" speed="13.89" length="14.42" shape="300.49,-1.60,53.14 314.91,-1.60,53.14"/>
    </edge>
    <edge id=":D0_7" function="internal">
        <lane id=":D0_7_0" index="0" speed="8.27" length="5.79" shape="300.49,-1.60,53.14 304.23,-1.04,53.14 305.96,-0.00,53.14"/>
    </edge>
    <edge id=":D0_8" function="internal">
        <lane id=":D0_8_0" index="0" speed="3.65" length="2.34" shape="300.49,-1.60,53.14 301.69,-0.80,53.14 302.09,0.00,53.14"/>
    </edge>
    <edge id=":D0_10" function="internal">
        <lane id=":D0_10_0" index="0" speed="8.27" length="8.52" shape="305.96,-0.00,53.14 307.00,0.63,53.14 308.80,3.41,53.14 309.63,7.31,53.14"/>
    </edge>
    <edge id=":D0_11" function="internal">
        <lane id=":D0_11_0" index="0" speed="3.65" length="2.34" shape="302.09,0.00,53.14 301.69,0.80,53.14 300.49,1.60,53.14"/>
    </edge>
    <edge id=":D1_0" function="internal">
        <lane id=":D1_0_0" index="0" speed="13.89" length="14.42" shape="322.26,101.60,-170.50 307.84,101.60,-170.50"/>
    </edge>
    <edge id=":D1_1" function="internal">
        <lane id=":D1_1_0" index="0" speed="8.27" length="5.79" shape="322.26,101.60,-170.50 318.52,101.04,-170.50 316.79,100.00,-170.50"/>
    </edge>
    <edge id=":D1_2" function="internal">
        <lane id=":D1_2_0" index="0" speed="3.65" length="2.34" shape="322.26,101.60,-170.50 321.06,100.80,-170.50 320.66,100.00,-170.50"/>
    </edge>
    <edge id=":D1_9" function="internal">
        <lane id=":D1_9_0" index="0" speed="8.27" length="8.52" shape="316.79,100.00,-170.50 315.75,99.37,-170.50 313.95,96.59,-170.50 313.12,92.69,-170.50"/>
    </edge>
    <edge id=":D1_10" function="internal">
        <lane id=":D1_10_0" index="0" speed="3.65" length="2.34" shape="320.66,100.00,-170.50 321.06,99.20,-170.50 322.26,98.40,-170.50"/>
    </edge>
    <edge id=":D1_3" function="internal">
        <lane id=":D1_3_0" index="0" speed="6.83" length="9.44" shape="316.31,92.44,-170.50 316.86,95.05,-170.50 318.03,96.91,-170.50 319.83,98.03,-170.50 322.26,98.40,-170.50"/>
    </edge>
    <edge id=":D1_4" function="internal">
        <lane id=":D1_4_0" index="0" speed="7.87" length="14.50" shape="316.31,92.44,-170.50 316.05,96.45,-170.50 314.55,99.31,-170.50 311.81,101.03,-170.50 307.84,101.60,-170.50"/>
    </edge>
    <edge id=":D1_5" function="internal">
        <lane id=":D1_5_0" index="0" speed="3.65" length="4.67" shape="316.31,92.44,-170.50 315.60,93.70,-170.50 314.84,94.16,-170.50 314.01,93.82,-170.50 313.12,92.69,-170.50"/>
    </edge>
    <edge id=":D1_6" function="internal">
        <lane id=":D1_6_0" index="0" speed="6.34" length="9.04" shape="307.84,98.40,-170.50 310.31,98.04,-170.50 312.02,96.97,-170.50 312.96,95.19,-170.50 313.12,92.69,-170.50"/>
    </edge>
    <edge id=":D1_7" function="internal">
        <lane id=":D1_7_0" index="0" speed="13.89" length="14.42" shape="307.84,98.40,-170.50 322.26,98.40,-170.50"/>
    </edge>
    <edge id=":D1_8" function="internal">
        <lane id=":D1_8_0" index="0" speed="3.65" length="2.34" shape="307.84,98.40,-170.50 309.04,99.20,-170.50 309.44,100.00,-170.50"/>
    </edge>
    <edge id=":D1_11" function="internal">
        <lane id=":D1_11_0" index="0" speed="3.65" length="2.34" shape="309.44,100.00,-170.50 309.04,100.80,-170.50 307.84,101.60,-170.50"/>
    </edge>
    <edge id=":E0_0" function="internal">
        <lane id=":E0_0_0" index="0" speed="8.06" length="10.88" shape="432.35,8.50,-101.90 431.03,5.48,-101.90 429.35,3.33,-101.90 427.31,2.03,-101.90 424.91,1.60,-101.90"/>
    </edge>
    <edge id=":E0_1" function="internal">
        <lane id=":E0_1_0" index="0" speed="7.55" length="15.58" shape="432.35,8.50,-101.90 431.56,4.08,-101.90 432.51,0.93,-101.90 435.21,-0.97,-101.90 439.66,-1.60,-101.90"/>
    </edge>
    <edge id=":E0_2" function="internal">
        <lane id=":E0_2_0" index="0" speed="3.65" length="4.67" shape="432.35,8.50,-101.90 432.74,7.11,-101.90 433.37,6.48,-101.90 434.26,6.61,-101.90 435.39,7.50,-101.90"/>
    </edge>
    <edge id=":E0_3" function="internal">
        <lane id=":E0_3_0" index="0" speed="5.93" length="9.10" shape="439.66,1.60,-101.90 437.06,1.97,-101.90 435.48,3.08,-101.90 434.93,4.92,-101.90 435.39,7.50,-101.90"/>
    </edge>
    <edge id=":E0_4" function="internal">
        <lane id=":E0_4_0" index="0" speed="13.89" length="14.74" shape="439.66,1.60,-101.90 424.91,1.60,-101.90"/>
    </edge>
    <edge id=":E0_5" function="internal">
        <lane id=":E0_5_0" index="0" speed="3.65" length="2.34" shape="439.66,1.60,-101.90 438.46,0.80,-101.90 438.06,0.00,-101.90"/>
    </edge>
    <edge id=":E0_9" function="internal">
        <lane id=":E0_9_0" index="0" speed="3.65" length="2.34" shape="438.06,0.00,-101.90 438.46,-0.80,-101.90 439.66,-1.60,-101.90"/>
    </edge>
    <edge id=":E0_6" function="internal">
        <lane id=":E0_6_0" index="0" speed="13.89" length="14.74" shape="424.91,-1.60,-101.90 439.66,-1.60,-101.90"/>
    </edge>
    <edge id=":E0_7" function="internal">
        <lane id=":E0_7_0" index="0" speed="9.34" length="5.53" shape="424.91,-1.60,-101.90 428.37,-1.03,-101.90 430.12,-0.00,-101.90"/>
    </edge>
    <edge id=":E0_8" function="internal">
        <lane id=":E0_8_0" index="0" speed="3.65" length="2.34" shape="424.91,-1.60,-101.90 426.11,-0.80,-101.90 426.51,0.00,-101.90"/>
    </edge>
    <edge id=":E0_10" function="internal">
        <lane id=":E0_10_0" index="0" speed="9.34" length="9.38" shape="430.12,-0.00,-101.90 431.27,0.68,-101.90 433.61,3.52,-101.90 435.39,7.50,-101.90"/>
    </edge>
    <edge id=":E0_11" function="internal">
        <lane id=":E0_11_0" index="0" speed="3.65" length="2.34" shape="426.51,0.00,-101.90 426.11,0.80,-101.90 424.91,1.60,-101.90"/>
    </edge>
    <edge id=":E1_0" function="internal">
        <lane id=":E1_0_0" index="0" speed="13.89" length="14.74" shape="470.60,101.60,82.26 455.86,101.60,82.26"/>
    </edge>
    <edge id=":E1_1" function="internal">
        <lane id=":E1_1_0" index="0" speed="9.34" length="5.53" shape="470.60,101.60,82.26 467.15,101.03,82.26 465.40,100.00,82.26"/>
    </edge>
    <edge id=":E1_2" function="internal">
        <lane id=":E1_2_0" index="0" speed="3.65" length="2.34" shape="470.60,101.60,82.26 469.40,100.80,82.26 469.00,100.00,82.26"/>
    </edge>
    <edge id=":E1_9" function="internal">
        <lane id=":E1_9_0" index="0" speed="9.34" length="9.38" shape="465.40,100.00,82.26 464.25,99.32,82.26 461.91,96.48,82.26 460.13,92.50,82.26"/>
    </edge>
    <edge id=":E1_10" function="internal">
        <lane id=":E1_10_0" index="0" speed="3.65" length="2.34" shape="469.00,100.00,82.26 469.40,99.20,82.26 470.60,98.40,82.26"/>
    </edge>
    <edge id=":E1_3" function="internal">
        <lane id=":E1_3_0" index="0" speed="8.06" length="10.88" shape="463.16,91.50,82.26 464.49,94.52,82.26 466.17,96.67,82.26 468.21,97.97,82.26 470.60,98.40,82.26"/>
    </edge>
    <edge id=":E1_4" function="internal">
        <lane id=":E1_4_0" index="0" speed="7.55" length="15.58" shape="463.16,91.50,82.26 463.96,95.92,82.26 463.01,99.07,82.26 460.31,100.97,82.26 455.86,101.60,82.26"/>
    </edge>
    <edge id=":E1_5" function="internal">
        <lane id=":E1_5_0" index="0" speed="3.65" length="4.67" shape="463.16,91.50,82.26 462.78,92.89,82.26 462.15,93.52,82.26 461.26,93.39,82.26 460.13,92.50,82.26"/>
    </edge>
    <edge id=":E1_6" function="internal">
        <lane id=":E1_6_0" index="0" speed="5.93" length="9.10" shape="455.86,98.40,82.26 458.46,98.03,82.26 460.04,96.92,82.26 460.59,95.08,82.26 460.13,92.50,82.26"/>
    </edge>
    <edge id=":E1_7" function="internal">
        <lane id=":E1_7_0" index="0" speed="13.89" length="14.74" shape="455.86,98.40,82.26 470.60,98.40,82.26"/>
    </edge>
    <edge id=":E1_8" function="internal">
        <lane id=":E1_8_0" index="0" speed="3.65" length="2.34" shape="455.86,98.40,82.26 457.06,99.20,82.26 457.46,100.00,82.26"/>
    </edge>
    <edge id=":E1_11" function="internal">
        <lane id=":E1_11_0" index="0" speed="3.65" length="2.34" shape="457.46,100.00,82.26 457.06,100.80,82.26 455.86,101.60,82.26"/>
    </edge>
    <edge id=":F0_0" function="internal">
        <lane id=":F0_0_0" index="0" speed="6.67" length="9.24" shape="541.74,7.39,-6.96 541.29,4.86,-6.96 540.18,3.05,-6.96 538.41,1.96,-6.96 535.97,1.60,-6.96"/>
    </edge>
    <edge id=":F0_1" function="internal">
        <lane id=":F0_1_0" index="0" speed="7.93" length="14.35" shape="541.74,7.39,-6.96 542.14,3.46,-6.96 543.72,0.65,-6.96 546.46,-1.04,-6.96 550.37,-1.60,-6.96"/>
    </edge>
    <edge id=":F0_2" function="internal">
        <lane id=":F0_2_0" index="0" speed="3.65" length="4.67" shape="541.74,7.39,-6.96 542.49,6.16,-6.96 543.27,5.73,-6.96 544.09,6.09,-6.96 544.94,7.26,-6.96"/>
    </edge>
    <edge id=":F0_3" function="internal">
        <lane id=":F0_3_0" index="0" speed="6.42" length="9.04" shape="550.37,1.60,-6.96 547.91,1.95,-6.96 546.18,3.02,-6.96 545.19,4.78,-6.96 544.94,7.26,-6.96"/>
    </edge>
    <edge id=":F0_4" function="internal">
        <lane id=":F0_4_0" index="0" speed="13.89" length="14.41" shape="550.37,1.60,-6.96 535.97,1.60,-6.96"/>
    </edge>
    <edge id=":F0_5" function="internal">
        <lane id=":F0_5_0" index="0" speed="3.65" length="2.34" shape="550.37,1.60,-6.96 549.17,0.80,-6.96 548.77,0.00,-6.96"/>
    </edge>
    <edge id=":F0_9" function="internal">
        <lane id=":F0_9_0" index="0" speed="3.65" length="2.34" shape="548.77,0.00,-6.96 549.17,-0.80,-6.96 550.37,-1.60,-6.96"/>
    </edge>
    <edge id=":F0_6" function="internal">
        <lane id=":F0_6_0" index="0" speed="13.89" length="14.41" shape="535.97,-1.60,-6.96 550.37,-1.60,-6.96"/>
    </edge>
    <edge id=":F0_7" function="internal">
        <lane id=":F0_7_0" index="0" speed="8.13" length="5.86" shape="535.97,-1.60,-6.96 539.76,-1.05,-6.96 541.49,0.00,-6.96"/>
    </edge>
    <edge id=":F0_8" function="internal">
        <lane id=":F0_8_0" index="0" speed="3.65" length="2.34" shape="535.97,-1.60,-6.96 537.17,-0.80,-6.96 537.57,0.00,-6.96"/>
    </edge>
    <edge id=":F0_10" function="internal">
        <lane id=":F0_10_0" index="0" speed="8.13" length="8.39" shape="541.49,0.00,-6.96 542.52,0.62,-6.96 544.24,3.38,-6.96 544.94,7.26,-6.96"/>
    </edge>
    <edge id=":F0_11" function="internal">
        <lane id=":F0_11_0" index="0" speed="3.65" length="2.34" shape="537.57,0.00,-6.96 537.17,0.80,-6.96 535.97,1.60,-6.96"/>
    </edge>
    <edge id=":F1_0" function="internal">
        <lane id=":F1_0_0" index="0" speed="13.89" length="14.41" shape="554.14,101.60,-146.82 539.73,101.60,-146.82"/>
    </edge>
    <edge id=":F1_1" function="internal">
        <lane id=":F1_1_0" index="0" speed="8.13" length="5.86" shape="554.14,101.60,-146.82 550.35,101.05,-146.82 548.61,100.00,-146.82"/>
    </edge>
    <edge id=":F1_2" function="internal">
        <lane id=":F1_2_0" index="0" speed="3.65" length="2.34" shape="554.14,101.60,-146.82 552.94,100.80,-146.82 552.54,100.00,-146.82"/>
    </edge>
    <edge id=":F1_9" function="internal">
        <lane id=":F1_9_0" index="0" speed="8.13" length="8.39" shape="548.61,100.00,-146.82 547.59,99.38,-146.82 545.86,96.62,-146.82 545.17,92.74,-146.82"/>
    </edge>
    <edge id=":F1_10" function="internal">
        <lane id=":F1_10_0" index="0" speed="3.65" length="2.34" shape="552.54,100.00,-146.82 552.94,99.20,-146.82 554.14,98.40,-146.82"/>
    </edge>
    <edge id=":F1_3" function="internal">
        <lane id=":F1_3_0" index="0" speed="6.67" length="9.24" shape="548.37,92.61,-146.82 548.81,95.14,-146.82 549.92,96.95,-146.82 551.70,98.04,-146.82 554.14,98.40,-146.82"/>
    </edge>
    <edge id=":F1_4" function="internal">
        <lane id=":F1_4_0" index="0" speed="7.93" length="14.35" shape="548.37,92.61,-146.82 547.96,96.54,-146.82 546.39,99.35,-146.82 543.64,101.04,-146.82 539.73,101.60,-146.82"/>
    </edge>
    <edge id=":F1_5" function="internal">
        <lane id=":F1_5_0" index="0" speed="3.65" length="4.67" shape="548.37,92.61,-146.82 547.61,93.84,-146.82 546.83,94.27,-146.82 546.02,93.91,-146.82 545.17,92.74,-146.82"/>
    </edge>
    <edge id=":F1_6" function="internal">
        <lane id=":F1_6_0" index="0" speed="6.42" length="9.04" shape="539.73,98.40,-146.82 542.20,98.05,-146.82 543.92,96.98,-146.82 544.91,95.22,-146.82 545.17,92.74,-146.82"/>
    </edge>
    <edge id=":F1_7" function="internal">
        <lane id=":F1_7_0" index="0" speed="13.89" length="14.41" shape="539.73,98.40,-146.82 554.14,98.40,-146.82"/>
    </edge>
    <edge id=":F1_8" function="internal">
        <lane id=":F1_8_0" index="0" speed="3.65" length="2.34" shape="539.73,98.40,-146.82 540.93,99.20,-146.82 541.33,100.00,-146.82"/>
    </edge>
    <edge id=":F1_11" function="internal">
        <lane id=":F1_11_0" index="0" speed="3.65" length="2.34" shape="541.33,100.00,-146.82 540.93,100.80,-146.82 539.73,101.60,-146.82"/>
    </edge>
    <edge id=":G0_0" function="internal">
        <lane id=":G0_0_0" index="0" speed="6.60" length="9.15" shape="639.14,1.60,-108.90 636.70,1.96,-108.90 634.94,3.03,-108.90 633.85,4.81,-108.90 633.45,7.31,-108.90"/>
    </edge>
    <edge id=":G0_1" function="internal">
        <lane id=":G0_1_0" index="0" speed="13.89" length="14.40" shape="639.14,1.60,-108.90 624.74,1.60,-108.90"/>
    </edge>
    <edge id=":G0_2" function="internal">
        <lane id=":G0_2_0" index="0" speed="3.65" length="2.34" shape="639.14,1.60,-108.90 637.94,0.80,-108.90 637.54,0.00,-108.90"/>
    </edge>
    <edge id=":G0_9" function="internal">
        <lane id=":G0_9_0" index="0" speed="3.65" length="2.34" shape="637.54,0.00,-108.90 637.94,-0.80,-108.90 639.14,-1.60,-108.90"/>
    </edge>
    <edge id=":G0_3" function="internal">
        <lane id=":G0_3_0" index="0" speed="13.89" length="14.40" shape="624.74,-1.60,-108.90 639.14,-1.60,-108.90"/>
    </edge>
    <edge id=":G0_4" function="internal">
        <lane id=":G0_4_0" index="0" speed="7.96" length="5.93" shape="624.74,-1.60,-108.90 628.63,-1.04,-108.90 630.34,-0.00,-108.90"/>
    </edge>
    <edge id=":G0_5" function="internal">
        <lane id=":G0_5_0" index="0" speed="3.65" length="2.34" shape="624.74,-1.60,-108.90 625.94,-0.80,-108.90 626.34,0.00,-108.90"/>
    </edge>
    <edge id=":G0_10" function="internal">
        <lane id=":G0_10_0" index="0" speed="7.96" length="8.35" shape="630.34,-0.00,-108.90 631.37,0.63,-108.90 632.98,3.41,-108.90 633.45,7.31,-108.90"/>
    </edge>
    <edge id=":G0_11" function="internal">
        <lane id=":G0_11_0" index="0" speed="3.65" length="2.34" shape="626.34,0.00,-108.90 625.94,0.80,-108.90 624.74,1.60,-108.90"/>
    </edge>
    <edge id=":G0_6" function="internal">
        <lane id=":G0_6_0" index="0" speed="6.46" length="9.03" shape="630.25,7.24,-108.90 629.95,4.77,-108.90 628.94,3.01,-108.90 627.20,1.95,-108.90 624.74,1.60,-108.90"/>
    </edge>
    <edge id=":G0_7" function="internal">
        <lane id=":G0_7_0" index="0" speed="8.08" length="14.22" shape="630.25,7.24,-108.90 630.88,3.37,-108.90 632.57,0.61,-108.90 635.33,-1.05,-108.90 639.14,-1.60,-108.90"/>
    </edge>
    <edge id=":G0_8" function="internal">
        <lane id=":G0_8_0" index="0" speed="3.65" length="4.67" shape="630.25,7.24,-108.90 631.07,6.05,-108.90 631.88,5.67,-108.90 632.67,6.09,-108.90 633.45,7.31,-108.90"/>
    </edge>
    <edge id=":G1_0" function="internal">
        <lane id=":G1_0_0" index="0" speed="13.89" length="14.40" shape="636.98,101.60,-26.19 622.58,101.60,-26.19"/>
    </edge>
    <edge id=":G1_1" function="internal">
        <lane id=":G1_1_0" index="0" speed="7.96" length="5.93" shape="636.98,101.60,-26.19 633.10,101.04,-26.19 631.38,100.00,-26.19"/>
    </edge>
    <edge id=":G1_2" function="internal">
        <lane id=":G1_2_0" index="0" speed="3.65" length="2.34" shape="636.98,101.60,-26.19 635.78,100.80,-26.19 635.38,100.00,-26.19"/>
    </edge>
    <edge id=":G1_9" function="internal">
        <lane id=":G1_9_0" index="0" speed="7.96" length="8.35" shape="631.38,100.00,-26.19 630.35,99.37,-26.19 628.74,96.59,-26.19 628.28,92.69,-26.19"/>
    </edge>
    <edge id=":G1_10" function="internal">
        <lane id=":G1_10_0" index="0" speed="3.65" length="2.34" shape="635.38,100.00,-26.19 635.78,99.20,-26.19 636.98,98.40,-26.19"/>
    </edge>
    <edge id=":G1_3" function="internal">
        <lane id=":G1_3_0" index="0" speed="6.46" length="9.03" shape="631.48,92.76,-26.19 631.77,95.23,-26.19 632.79,96.99,-26.19 634.53,98.05,-26.19 636.98,98.40,-26.19"/>
    </edge>
    <edge id=":G1_4" function="internal">
        <lane id=":G1_4_0" index="0" speed="8.08" length="14.22" shape="631.48,92.76,-26.19 630.84,96.63,-26.19 629.15,99.39,-26.19 626.40,101.05,-26.19 622.58,101.60,-26.19"/>
    </edge>
    <edge id=":G1_5" function="internal">
        <lane id=":G1_5_0" index="0" speed="3.65" length="4.67" shape="631.48,92.76,-26.19 630.65,93.95,-26.19 629.84,94.33,-26.19 629.05,93.91,-26.19 628.28,92.69,-26.19"/>
    </edge>
    <edge id=":G1_6" function="internal">