<?xml version="1.0" encoding="UTF-8"?>

<!-- generated on 07/24/20 11:51:57 by Eclipse SUMO netgenerate Version 1.5.0
<configuration xmlns:xsi="http://www.w3.org/2001/XMLSchema-instance" xsi:noNamespaceSchemaLocation="http://sumo.dlr.de/xsd/netgenerateConfiguration.xsd">

    <grid_network>
        <grid value="true"/>
        <grid.x-number value="20"/>
        <grid.y-number value="2"/>
    </grid_network>

    <output>
        <output-file value="5.net.xml"/>
    </output>

    <processing>
        <perturb-x value="10"/>
        <perturb-z value="30"/>
    </processing>

    <random_number>
        <seed value="4310387"/>
    </random_number>

</configuration>
-->

<net version="1.3" junctionCornerDetail="5" limitTurnSpeed="5.50" xmlns:xsi="http://www.w3.org/2001/XMLSchema-instance" xsi:noNamespaceSchemaLocation="http://sumo.dlr.de/xsd/net_file.xsd">

    <location netOffset="11.38,0.00" convBoundary="0.00,0.00,1915.47,100.00" origBoundary="-11.38,0.00,1904.09,100.00" projParameter="!"/>

    <edge id=":A0_0" function="internal">
        <lane id=":A0_0_0" index="0" speed="3.90" length="3.41" shape="3.92,1.60,12.48 3.23,1.70,13.09 2.73,2.00,13.60 2.43,2.49,14.10 2.32,3.19,14.72"/>
    </edge>
    <edge id=":A0_1" function="internal">
        <lane id=":A0_1_0" index="0" speed="6.08" length="7.98" shape="-0.88,3.16,14.72 -0.56,1.08,14.14 0.34,-0.41,13.66 1.84,-1.30,13.19 3.92,-1.60,12.61"/>
    </edge>
    <edge id=":A1_0" function="internal">
        <lane id=":A1_0_0" index="0" speed="6.08" length="7.89" shape="3.22,101.60,26.12 1.11,101.30,26.48 -0.39,100.39,26.77 -1.29,98.88,27.06 -1.58,96.76,27.41"/>
    </edge>
    <edge id=":A1_1" function="internal">
        <lane id=":A1_1_0" index="0" speed="3.90" length="2.84" shape="1.62,96.79,27.41 1.72,97.49,27.09 2.02,98.00,26.83 2.52,98.30,26.57 3.22,98.40,26.25"/>
    </edge>
    <edge id=":B0_0" function="internal">
        <lane id=":B0_0_0" index="0" speed="6.76" length="9.36" shape="94.59,7.50,-35.83 94.08,4.92,-35.83 92.93,3.07,-35.83 91.14,1.97,-35.83 88.71,1.60,-35.83"/>
    </edge>
    <edge id=":B0_1" function="internal">
        <lane id=":B0_1_0" index="0" speed="7.89" length="14.44" shape="94.59,7.50,-35.83 94.91,3.52,-35.83 96.43,0.67,-35.83 99.17,-1.03,-35.83 103.13,-1.60,-35.83"/>
    </edge>
    <edge id=":B0_2" function="internal">
        <lane id=":B0_2_0" index="0" speed="3.65" length="4.67" shape="94.59,7.50,-35.83 95.31,6.25,-35.83 96.08,5.80,-35.83 96.91,6.15,-35.83 97.78,7.29,-35.83"/>
    </edge>
    <edge id=":B0_3" function="internal">
        <lane id=":B0_3_0" index="0" speed="6.37" length="9.04" shape="103.13,1.60,-35.83 100.65,1.96,-35.83 98.94,3.02,-35.83 97.98,4.80,-35.83 97.78,7.29,-35.83"/>
    </edge>
    <edge id=":B0_4" function="internal">
        <lane id=":B0_4_0" index="0" speed="13.89" length="14.41" shape="103.13,1.60,-35.83 88.71,1.60,-35.83"/>
    </edge>
    <edge id=":B0_5" function="internal">
        <lane id=":B0_5_0" index="0" speed="3.65" length="2.34" shape="103.13,1.60,-35.83 101.93,0.80,-35.83 101.53,0.00,-35.83"/>
    </edge>
    <edge id=":B0_9" function="internal">
        <lane id=":B0_9_0" index="0" speed="3.65" length="2.34" shape="101.53,0.00,-35.83 101.93,-0.80,-35.83 103.13,-1.60,-35.83"/>
    </edge>
    <edge id=":B0_6" function="internal">
        <lane id=":B0_6_0" index="0" speed="13.89" length="14.41" shape="88.71,-1.60,-35.83 103.13,-1.60,-35.83"/>
    </edge>
    <edge id=":B0_7" function="internal">
        <lane id=":B0_7_0" index="0" speed="8.22" length="5.82" shape="88.71,-1.60,-35.83 92.47,-1.04,-35.83 94.20,0.00,-35.83"/>
    </edge>
    <edge id=":B0_8" function="internal">
        <lane id=":B0_8_0" index="0" speed="3.65" length="2.34" shape="88.71,-1.60,-35.83 89.91,-0.80,-35.83 90.31,0.00,-35.83"/>
    </edge>
    <edge id=":B0_10" function="internal">
        <lane id=":B0_10_0" index="0" speed="8.22" length="8.47" shape="94.20,0.00,-35.83 95.23,0.62,-35.83 97.00,3.40,-35.83 97.78,7.29,-35.83"/>
    </edge>
    <edge id=":B0_11" function="internal">
        <lane id=":B0_11_0" index="0" speed="3.65" length="2.34" shape="90.31,0.00,-35.83 89.91,0.80,-35.83 88.71,1.60,-35.83"/>
    </edge>
    <edge id=":B1_0" function="internal">
        <lane id=":B1_0_0" index="0" speed="13.89" length="14.41" shape="109.06,101.60,-22.66 94.65,101.60,-22.66"/>
    </edge>
    <edge id=":B1_1" function="internal">
        <lane id=":B1_1_0" index="0" speed="8.22" length="5.82" shape="109.06,101.60,-22.66 105.31,101.04,-22.66 103.58,100.00,-22.66"/>
    </edge>
    <edge id=":B1_2" function="internal">
        <lane id=":B1_2_0" index="0" speed="3.65" length="2.34" shape="109.06,101.60,-22.66 107.86,100.80,-22.66 107.46,100.00,-22.66"/>
    </edge>
    <edge id=":B1_9" function="internal">
        <lane id=":B1_9_0" index="0" speed="8.22" length="8.47" shape="103.58,100.00,-22.66 102.54,99.38,-22.66 100.77,96.60,-22.66 100.00,92.71,-22.66"/>
    </edge>
    <edge id=":B1_10" function="internal">
        <lane id=":B1_10_0" index="0" speed="3.65" length="2.34" shape="107.46,100.00,-22.66 107.86,99.20,-22.66 109.06,98.40,-22.66"/>
    </edge>
    <edge id=":B1_3" function="internal">
        <lane id=":B1_3_0" index="0" speed="6.76" length="9.36" shape="103.19,92.50,-22.66 103.70,95.08,-22.66 104.84,96.93,-22.66 106.63,98.03,-22.66 109.06,98.40,-22.66"/>
    </edge>
    <edge id=":B1_4" function="internal">
        <lane id=":B1_4_0" index="0" speed="7.89" length="14.44" shape="103.19,92.50,-22.66 102.87,96.48,-22.66 101.34,99.33,-22.66 98.60,101.03,-22.66 94.65,101.60,-22.66"/>
    </edge>
    <edge id=":B1_5" function="internal">
        <lane id=":B1_5_0" index="0" speed="3.65" length="4.67" shape="103.19,92.50,-22.66 102.47,93.75,-22.66 101.69,94.20,-22.66 100.87,93.85,-22.66 100.00,92.71,-22.66"/>
    </edge>
    <edge id=":B1_6" function="internal">
        <lane id=":B1_6_0" index="0" speed="6.37" length="9.04" shape="94.65,98.40,-22.66 97.12,98.04,-22.66 98.84,96.98,-22.66 99.80,95.20,-22.66 100.00,92.71,-22.66"/>
    </edge>
    <edge id=":B1_7" function="internal">
        <lane id=":B1_7_0" index="0" speed="13.89" length="14.41" shape="94.65,98.40,-22.66 109.06,98.40,-22.66"/>
    </edge>
    <edge id=":B1_8" function="internal">
        <lane id=":B1_8_0" index="0" speed="3.65" length="2.34" shape="94.65,98.40,-22.66 95.85,99.20,-22.66 96.25,100.00,-22.66"/>
    </edge>
    <edge id=":B1_11" function="internal">
        <lane id=":B1_11_0" index="0" speed="3.65" length="2.34" shape="96.25,100.00,-22.66 95.85,100.80,-22.66 94.65,101.60,-22.66"/>
    </edge>
    <edge id=":C0_0" function="internal">
        <lane id=":C0_0_0" index="0" speed="6.60" length="9.16" shape="205.02,1.60,85.22 202.58,1.96,85.22 200.82,3.03,85.22 199.73,4.82,85.22 199.32,7.32,85.22"/>
    </edge>
    <edge id=":C0_1" function="internal">
        <lane id=":C0_1_0" index="0" speed="13.89" length="14.40" shape="205.02,1.60,85.22 190.62,1.60,85.22"/>
    </edge>
    <edge id=":C0_2" function="internal">
        <lane id=":C0_2_0" index="0" speed="3.65" length="2.34" shape="205.02,1.60,85.22 203.82,0.80,85.22 203.42,0.00,85.22"/>
    </edge>
    <edge id=":C0_9" function="internal">
        <lane id=":C0_9_0" index="0" speed="3.65" length="2.34" shape="203.42,0.00,85.22 203.82,-0.80,85.22 205.02,-1.60,85.22"/>
    </edge>
    <edge id=":C0_3" function="internal">
        <lane id=":C0_3_0" index="0" speed="13.89" length="14.40" shape="190.62,-1.60,85.22 205.02,-1.60,85.22"/>
    </edge>
    <edge id=":C0_4" function="internal">
        <lane id=":C0_4_0" index="0" speed="7.96" length="5.93" shape="190.62,-1.60,85.22 194.51,-1.04,85.22 196.22,0.00,85.22"/>
    </edge>
    <edge id=":C0_5" function="internal">
        <lane id=":C0_5_0" index="0" speed="3.65" length="2.34" shape="190.62,-1.60,85.22 191.82,-0.80,85.22 192.22,0.00,85.22"/>
    </edge>
    <edge id=":C0_10" function="internal">
        <lane id=":C0_10_0" index="0" speed="7.96" length="8.35" shape="196.22,0.00,85.22 197.26,0.63,85.22 198.86,3.42,85.22 199.32,7.32,85.22"/>
    </edge>
    <edge id=":C0_11" function="internal">
        <lane id=":C0_11_0" index="0" speed="3.65" length="2.34" shape="192.22,0.00,85.22 191.82,0.80,85.22 190.62,1.60,85.22"/>
    </edge>
    <edge id=":C0_6" function="internal">
        <lane id=":C0_6_0" index="0" speed="6.45" length="9.03" shape="196.12,7.24,85.22 195.83,4.77,85.22 194.82,3.01,85.22 193.08,1.95,85.22 190.62,1.60,85.22"/>
    </edge>
    <edge id=":C0_7" function="internal">
        <lane id=":C0_7_0" index="0" speed="8.08" length="14.23" shape="196.12,7.24,85.22 196.76,3.37,85.22 198.46,0.61,85.22 201.21,-1.05,85.22 205.02,-1.60,85.22"/>
    </edge>
    <edge id=":C0_8" function="internal">
        <lane id=":C0_8_0" index="0" speed="3.65" length="4.67" shape="196.12,7.24,85.22 196.95,6.06,85.22 197.76,5.68,85.22 198.55,6.10,85.22 199.32,7.32,85.22"/>
    </edge>
    <edge id=":C1_0" function="internal">
        <lane id=":C1_0_0" index="0" speed="13.89" length="14.40" shape="202.74,101.60,-12.11 188.34,101.60,-12.11"/>
    </edge>
    <edge id=":C1_1" function="internal">
        <lane id=":C1_1_0" index="0" speed="7.96" length="5.93" shape="202.74,101.60,-12.11 198.85,101.04,-12.11 197.14,100.00,-12.11"/>
    </edge>
    <edge id=":C1_2" function="internal">
        <lane id=":C1_2_0" index="0" speed="3.65" length="2.34" shape="202.74,101.60,-12.11 201.54,100.80,-12.11 201.14,100.00,-12.11"/>
    </edge>
    <edge id=":C1_9" function="internal">
        <lane id=":C1_9_0" index="0" speed="7.96" length="8.35" shape="197.14,100.00,-12.11 196.11,99.37,-12.11 194.50,96.58,-12.11 194.04,92.68,-12.11"/>
    </edge>
    <edge id=":C1_10" function="internal">
        <lane id=":C1_10_0" index="0" speed="3.65" length="2.34" shape="201.14,100.00,-12.11 201.54,99.20,-12.11 202.74,98.40,-12.11"/>
    </edge>
    <edge id=":C1_3" function="internal">
        <lane id=":C1_3_0" index="0" speed="6.45" length="9.03" shape="197.24,92.76,-12.11 197.53,95.23,-12.11 198.55,96.99,-12.11 200.28,98.05,-12.11 202.74,98.40,-12.11"/>
    </edge>
    <edge id=":C1_4" function="internal">
        <lane id=":C1_4_0" index="0" speed="8.08" length="14.23" shape="197.24,92.76,-12.11 196.60,96.63,-12.11 194.91,99.39,-12.11 192.15,101.05,-12.11 188.34,101.60,-12.11"/>
    </edge>
    <edge id=":C1_5" function="internal">
        <lane id=":C1_5_0" index="0" speed="3.65" length="4.67" shape="197.24,92.76,-12.11 196.41,93.94,-12.11 195.60,94.32,-12.11 194.81,93.90,-12.11 194.04,92.68,-12.11"/>
    </edge>
    <edge id=":C1_6" function="internal">
        <lane id=":C1_6_0" index="0" speed="6.60" length="9.16" shape="188.34,98.40,-12.11 190.78,98.04,-12.11 192.55,96.97,-12.11 193.63,95.18,-12.11 194.04,92.68,-12.11"/>
    </edge>
    <edge id=":C1_7" function="internal">
        <lane id=":C1_7_0" index="0" speed="13.89" length="14.40" shape="188.34,98.40,-12.11 202.74,98.40,-12.11"/>
    </edge>
    <edge id=":C1_8" function="internal">
        <lane id=":C1_8_0" index="0" speed="3.65" length="2.34" shape="188.34,98.40,-12.11 189.54,99.20,-12.11 189.94,100.00,-12.11"/>
    </edge>
    <edge id=":C1_11" function="internal">
        <lane id=":C1_11_0" index="0" speed="3.65" length="2.34" shape="189.94,100.00,-12.11 189.54,100.80,-12.11 188.34,101.60,-12.11"/>
    </edge>
    <edge id=":D0_0" function="internal">
        <lane id=":D0_0_0" index="0" speed="6.64" length="9.21" shape="301.89,7.36,15.94 301.46,4.84,15.94 300.36,3.04,15.94 298.59,1.96,15.94 296.15,1.60,15.94"/>
    </edge>
    <edge id=":D0_1" function="internal">
        <lane id=":D0_1_0" index="0" speed="7.94" length="14.32" shape="301.89,7.36,15.94 302.32,3.44,15.94 303.90,0.64,15.94 306.65,-1.04,15.94 310.55,-1.60,15.94"/>
    </edge>
    <edge id=":D0_2" function="internal">
        <lane id=":D0_2_0" index="0" speed="3.65" length="4.67" shape="301.89,7.36,15.94 302.65,6.13,15.94 303.44,5.71,15.94 304.25,6.08,15.94 305.09,7.25,15.94"/>
    </edge>
    <edge id=":D0_3" function="internal">
        <lane id=":D0_3_0" index="0" speed="6.43" length="9.03" shape="310.55,1.60,15.94 308.09,1.95,15.94 306.36,3.01,15.94 305.36,4.78,15.94 305.09,7.25,15.94"/>
    </edge>
    <edge id=":D0_4" function="internal">
        <lane id=":D0_4_0" index="0" speed="13.89" length="14.40" shape="310.55,1.60,15.94 296.15,1.60,15.94"/>
    </edge>
    <edge id=":D0_5" function="internal">
        <lane id=":D0_5_0" index="0" speed="3.65" length="2.34" shape="310.55,1.60,15.94 309.35,0.80,15.94 308.95,0.00,15.94"/>
    </edge>
    <edge id=":D0_9" function="internal">
        <lane id=":D0_9_0" index="0" speed="3.65" length="2.34" shape="308.95,0.00,15.94 309.35,-0.80,15.94 310.55,-1.60,15.94"/>
    </edge>
    <edge id=":D0_6" function="internal">
        <lane id=":D0_6_0" index="0" speed="13.89" length="14.40" shape="296.15,-1.60,15.94 310.55,-1.60,15.94"/>
    </edge>
    <edge id=":D0_7" function="internal">
        <lane id=":D0_7_0" index="0" speed="8.11" length="5.87" shape="296.15,-1.60,15.94 299.95,-1.05,15.94 301.68,-0.00,15.94"/>
    </edge>
    <edge id=":D0_8" function="internal">
        <lane id=":D0_8_0" index="0" speed="3.65" length="2.34" shape="296.15,-1.60,15.94 297.35,-0.80,15.94 297.75,0.00,15.94"/>
    </edge>
    <edge id=":D0_10" function="internal">
        <lane id=":D0_10_0" index="0" speed="8.11" length="8.37" shape="301.68,-0.00,15.94 302.70,0.61,15.94 304.42,3.38,15.94 305.09,7.25,15.94"/>
    </edge>
    <edge id=":D0_11" function="internal">
        <lane id=":D0_11_0" index="0" speed="3.65" length="2.34" shape="297.75,0.00,15.94 297.35,0.80,15.94 296.15,1.60,15.94"/>
    </edge>
    <edge id=":D1_0" function="internal">
        <lane id=":D1_0_0" index="0" speed="13.89" length="14.40" shape="313.74,101.60,-51.15 299.34,101.60,-51.15"/>
    </edge>
    <edge id=":D1_1" function="internal">
        <lane id=":D1_1_0" index="0" speed="8.11" length="5.87" shape="313.74,101.60,-51.15 309.95,101.05,-51.15 308.21,100.00,-51.15"/>
    </edge>
    <edge id=":D1_2" function="internal">
        <lane id=":D1_2_0" index="0" speed="3.65" length="2.34" shape="313.74,101.60,-51.15 312.54,100.80,-51.15 312.14,100.00,-51.15"/>
    </edge>
    <edge id=":D1_9" function="internal">
        <lane id=":D1_9_0" index="0" speed="8.11" length="8.37" shape="308.21,100.00,-51.15 307.19,99.39,-51.15 305.47,96.62,-51.15 304.80,92.75,-51.15"/>
    </edge>
    <edge id=":D1_10" function="internal">
        <lane id=":D1_10_0" index="0" speed="3.65" length="2.34" shape="312.14,100.00,-51.15 312.54,99.20,-51.15 313.74,98.40,-51.15"/>
    </edge>
    <edge id=":D1_3" function="internal">
        <lane id=":D1_3_0" index="0" speed="6.64" length="9.21" shape="308.00,92.64,-51.15 308.43,95.16,-51.15 309.53,96.96,-51.15 311.30,98.04,-51.15 313.74,98.40,-51.15"/>
    </edge>
    <edge id=":D1_4" function="internal">
        <lane id=":D1_4_0" index="0" speed="7.94" length="14.32" shape="308.00,92.64,-51.15 307.57,96.56,-51.15 305.99,99.36,-51.15 303.24,101.04,-51.15 299.34,101.60,-51.15"/>
    </edge>
    <edge id=":D1_5" function="internal">
        <lane id=":D1_5_0" index="0" speed="3.65" length="4.67" shape="308.00,92.64,-51.15 307.24,93.87,-51.15 306.46,94.29,-51.15 305.64,93.92,-51.15 304.80,92.75,-51.15"/>
    </edge>
    <edge id=":D1_6" function="internal">
        <lane id=":D1_6_0" index="0" speed="6.43" length="9.03" shape="299.34,98.40,-51.15 301.80,98.05,-51.15 303.53,96.99,-51.15 304.53,95.22,-51.15 304.80,92.75,-51.15"/>
    </edge>
    <edge id=":D1_7" function="internal">
        <lane id=":D1_7_0" index="0" speed="13.89" length="14.40" shape="299.34,98.40,-51.15 313.74,98.40,-51.15"/>
    </edge>
    <edge id=":D1_8" function="internal">
        <lane id=":D1_8_0" index="0" speed="3.65" length="2.34" shape="299.34,98.40,-51.15 300.54,99.20,-51.15 300.94,100.00,-51.15"/>
    </edge>
    <edge id=":D1_11" function="internal">
        <lane id=":D1_11_0" index="0" speed="3.65" length="2.34" shape="300.94,100.00,-51.15 300.54,100.80,-51.15 299.34,101.60,-51.15"/>
    </edge>
    <edge id=":E0_0" function="internal">
        <lane id=":E0_0_0" index="0" speed="7.11" length="9.80" shape="413.09,7.84,-30.57 412.36,5.11,-30.57 411.07,3.16,-30.57 409.22,1.99,-30.57 406.80,1.60,-30.57"/>
    </edge>
    <edge id=":E0_1" function="internal">
        <lane id=":E0_1_0" index="0" speed="7.77" length="14.76" shape="413.09,7.84,-30.57 413.09,3.71,-30.57 414.45,0.76,-30.57 417.18,-1.01,-30.57 421.27,-1.60,-30.57"/>
    </edge>
    <edge id=":E0_2" function="internal">
        <lane id=":E0_2_0" index="0" speed="3.65" length="4.67" shape="413.09,7.84,-30.57 413.71,6.54,-30.57 414.44,6.03,-30.57 415.29,6.31,-30.57 416.26,7.39,-30.57"/>
    </edge>
    <edge id=":E0_3" function="internal">
        <lane id=":E0_3_0" index="0" speed="6.22" length="9.05" shape="421.27,1.60,-30.57 418.76,1.96,-30.57 417.09,3.05,-30.57 416.26,4.86,-30.57 416.26,7.39,-30.57"/>
    </edge>
    <edge id=":E0_4" function="internal">
        <lane id=":E0_4_0" index="0" speed="13.89" length="14.47" shape="421.27,1.60,-30.57 406.80,1.60,-30.57"/>
    </edge>
    <edge id=":E0_5" function="internal">
        <lane id=":E0_5_0" index="0" speed="3.65" length="2.34" shape="421.27,1.60,-30.57 420.07,0.80,-30.57 419.67,0.00,-30.57"/>
    </edge>
    <edge id=":E0_9" function="internal">
        <lane id=":E0_9_0" index="0" speed="3.65" length="2.34" shape="419.67,0.00,-30.57 420.07,-0.80,-30.57 421.27,-1.60,-30.57"/>
    </edge>
    <edge id=":E0_6" function="internal">
        <lane id=":E0_6_0" index="0" speed="13.89" length="14.47" shape="406.80,-1.60,-30.57 421.27,-1.60,-30.57"/>
    </edge>
    <edge id=":E0_7" function="internal">
        <lane id=":E0_7_0" index="0" speed="8.51" length="5.70" shape="406.80,-1.60,-30.57 410.45,-1.04,-30.57 412.17,-0.00,-30.57"/>
    </edge>
    <edge id=":E0_8" function="internal">
        <lane id=":E0_8_0" index="0" speed="3.65" length="2.34" shape="406.80,-1.60,-30.57 408.00,-0.80,-30.57 408.40,0.00,-30.57"/>
    </edge>
    <edge id=":E0_10" function="internal">
        <lane id=":E0_10_0" index="0" speed="8.51" length="8.74" shape="412.17,-0.00,-30.57 413.25,0.65,-30.57 415.18,3.46,-30.57 416.26,7.39,-30.57"/>
    </edge>
    <edge id=":E0_11" function="internal">
        <lane id=":E0_11_0" index="0" speed="3.65" length="2.34" shape="408.40,0.00,-30.57 408.00,0.80,-30.57 406.80,1.60,-30.57"/>
    </edge>
    <edge id=":E1_0" function="internal">
        <lane id=":E1_0_0" index="0" speed="13.89" length="14.47" shape="434.73,101.60,24.68 420.26,101.60,24.68"/>
    </edge>
    <edge id=":E1_1" function="internal">
        <lane id=":E1_1_0" index="0" speed="8.51" length="5.70" shape="434.73,101.60,24.68 431.08,101.04,24.71 429.36,100.00,24.73"/>
    </edge>
    <edge id=":E1_2" function="internal">
        <lane id=":E1_2_0" index="0" speed="3.65" length="2.34" shape="434.73,101.60,24.68 433.53,100.80,24.68 433.13,100.00,24.68"/>
    </edge>
    <edge id=":E1_9" function="internal">
        <lane id=":E1_9_0" index="0" speed="8.51" length="8.74" shape="429.36,100.00,24.73 428.28,99.35,24.74 426.35,96.54,24.77 425.27,92.61,24.80"/>
    </edge>
    <edge id=":E1_10" function="internal">
        <lane id=":E1_10_0" index="0" speed="3.65" length="2.34" shape="433.13,100.00,24.68 433.53,99.20,24.68 434.73,98.40,24.68"/>
    </edge>
    <edge id=":E1_3" function="internal">
        <lane id=":E1_3_0" index="0" speed="7.11" length="9.80" shape="428.44,92.16,24.68 429.17,94.89,24.68 430.46,96.84,24.68 432.31,98.01,24.68 434.73,98.40,24.68"/>
    </edge>
    <edge id=":E1_4" function="internal">
        <lane id=":E1_4_0" index="0" speed="7.77" length="14.76" shape="428.44,92.16,24.68 428.44,96.29,24.68 427.08,99.24,24.68 424.35,101.01,24.68 420.26,101.60,24.68"/>
    </edge>
    <edge id=":E1_5" function="internal">
        <lane id=":E1_5_0" index="0" speed="3.65" length="4.67" shape="428.44,92.16,24.68 427.82,93.46,24.72 427.09,93.97,24.74 426.24,93.69,24.76 425.27,92.61,24.80"/>
    </edge>
    <edge id=":E1_6" function="internal">
        <lane id=":E1_6_0" index="0" speed="6.22" length="9.05" shape="420.26,98.40,24.68 422.77,98.04,24.71 424.44,96.95,24.74 425.27,95.14,24.77 425.27,92.61,24.80"/>
    </edge>
    <edge id=":E1_7" function="internal">
        <lane id=":E1_7_0" index="0" speed="13.89" length="14.47" shape="420.26,98.40,24.68 434.73,98.40,24.68"/>
    </edge>
    <edge id=":E1_8" function="internal">
        <lane id=":E1_8_0" index="0" speed="3.65" length="2.34" shape="420.26,98.40,24.68 421.46,99.20,24.68 421.86,100.00,24.68"/>
    </edge>
    <edge id=":E1_11" function="internal">
        <lane id=":E1_11_0" index="0" speed="3.65" length="2.34" shape="421.86,100.00,24.68 421.46,100.80,24.68 420.26,101.60,24.68"/>
    </edge>
    <edge id=":F0_0" function="internal">
        <lane id=":F0_0_0" index="0" speed="6.58" length="9.12" shape="517.24,7.28,-2.09 516.85,4.80,-2.09 515.77,3.02,-2.09 514.01,1.96,-2.09 511.57,1.60,-2.09"/>
    </edge>
    <edge id=":F0_1" function="internal">
        <lane id=":F0_1_0" index="0" speed="7.97" length="14.26" shape="517.24,7.28,-2.09 517.73,3.40,-2.09 519.35,0.62,-2.09 522.09,-1.04,-2.09 525.97,-1.60,-2.09"/>
    </edge>
    <edge id=":F0_2" function="internal">
        <lane id=":F0_2_0" index="0" speed="3.65" length="4.67" shape="517.24,7.28,-2.09 518.02,6.07,-2.09 518.81,5.66,-2.09 519.62,6.04,-2.09 520.44,7.23,-2.09"/>
    </edge>
    <edge id=":F0_3" function="internal">
        <lane id=":F0_3_0" index="0" speed="6.47" length="9.03" shape="525.97,1.60,-2.09 523.51,1.95,-2.09 521.77,3.01,-2.09 520.75,4.77,-2.09 520.44,7.23,-2.09"/>
    </edge>
    <edge id=":F0_4" function="internal">
        <lane id=":F0_4_0" index="0" speed="13.89" length="14.40" shape="525.97,1.60,-2.09 511.57,1.60,-2.09"/>
    </edge>
    <edge id=":F0_5" function="internal">
        <lane id=":F0_5_0" index="0" speed="3.65" length="2.34" shape="525.97,1.60,-2.09 524.77,0.80,-2.09 524.37,0.00,-2.09"/>
    </edge>
    <edge id=":F0_9" function="internal">
        <lane id=":F0_9_0" index="0" speed="3.65" length="2.34" shape="524.37,0.00,-2.09 524.77,-0.80,-2.09 525.97,-1.60,-2.09"/>
    </edge>
    <edge id=":F0_6" function="internal">
        <lane id=":F0_6_0" index="0" speed="13.89" length="14.40" shape="511.57,-1.60,-2.09 525.97,-1.60,-2.09"/>
    </edge>
    <edge id=":F0_7" function="internal">
        <lane id=":F0_7_0" index="0" speed="8.06" length="5.90" shape="511.57,-1.60,-2.09 515.39,-1.05,-2.09 517.14,0.00,-2.09"/>
    </edge>
    <edge id=":F0_8" function="internal">
        <lane id=":F0_8_0" index="0" speed="3.65" length="2.34" shape="511.57,-1.60,-2.09 512.77,-0.80,-2.09 513.17,0.00,-2.09"/>
    </edge>
    <edge id=":F0_10" function="internal">
        <lane id=":F0_10_0" index="0" speed="8.06" length="8.32" shape="517.14,0.00,-2.09 518.15,0.61,-2.09 519.83,3.37,-2.09 520.44,7.23,-2.09"/>
    </edge>
    <edge id=":F0_11" function="internal">
        <lane id=":F0_11_0" index="0" speed="3.65" length="2.34" shape="513.17,0.00,-2.09 512.77,0.80,-2.09 511.57,1.60,-2.09"/>
    </edge>
    <edge id=":F1_0" function="internal">
        <lane id=":F1_0_0" index="0" speed="13.89" length="14.40" shape="527.61,101.60,-44.05 513.21,101.60,-44.05"/>
    </edge>
    <edge id=":F1_1" function="internal">
        <lane id=":F1_1_0" index="0" speed="8.06" length="5.90" shape="527.61,101.60,-44.05 523.78,101.05,-44.05 522.04,100.00,-44.05"/>
    </edge>
    <edge id=":F1_2" function="internal">
        <lane id=":F1_2_0" index="0" speed="3.65" length="2.34" shape="527.61,101.60,-44.05 526.41,100.80,-44.05 526.01,100.00,-44.05"/>
    </edge>
    <edge id=":F1_9" function="internal">
        <lane id=":F1_9_0" index="0" speed="8.06" length="8.32" shape="522.04,100.00,-44.05 521.03,99.39,-44.05 519.35,96.63,-44.05 518.74,92.77,-44.05"/>
    </edge>
    <edge id=":F1_10" function="internal">
        <lane id=":F1_10_0" index="0" speed="3.65" length="2.34" shape="526.01,100.00,-44.05 526.41,99.20,-44.05 527.61,98.40,-44.05"/>
    </edge>
    <edge id=":F1_3" function="internal">
        <lane id=":F1_3_0" index="0" speed="6.58" length="9.12" shape="521.93,92.72,-44.05 522.33,95.20,-44.05 523.40,96.98,-44.05 525.16,98.04,-44.05 527.61,98.40,-44.05"/>
    </edge>
    <edge id=":F1_4" function="internal">
        <lane id=":F1_4_0" index="0" speed="7.97" length="14.26" shape="521.93,92.72,-44.05 521.45,96.60,-44.05 519.83,99.38,-44.05 517.08,101.04,-44.05 513.21,101.60,-44.05"/>
    </edge>
    <edge id=":F1_5" function="internal">
        <lane id=":F1_5_0" index="0" speed="3.65" length="4.67" shape="521.93,92.72,-44.05 521.16,93.93,-44.05 520.36,94.34,-44.05 519.56,93.96,-44.05 518.74,92.77,-44.05"/>
    </edge>
    <edge id=":F1_6" function="internal">
        <lane id=":F1_6_0" index="0" speed="6.47" length="9.03" shape="513.21,98.40,-44.05 515.66,98.05,-44.05 517.40,96.99,-44.05 518.43,95.23,-44.05 518.74,92.77,-44.05"/>
    </edge>
    <edge id=":F1_7" function="internal">
        <lane id=":F1_7_0" index="0" speed="13.89" length="14.40" shape="513.21,98.40,-44.05 527.61,98.40,-44.05"/>
    </edge>
    <edge id=":F1_8" function="internal">
        <lane id=":F1_8_0" index="0" speed="3.65" length="2.34" shape="513.21,98.40,-44.05 514.41,99.20,-44.05 514.81,100.00,-44.05"/>
    </edge>
    <edge id=":F1_11" function="internal">
        <lane id=":F1_11_0" index="0" speed="3.65" length="2.34" shape="514.81,100.00,-44.05 514.41,100.80,-44.05 513.21,101.60,-44.05"/>
    </edge>
    <edge id=":G0_0" function="internal">
        <lane id=":G0_0_0" index="0" speed="6.55" length="9.08" shape="621.09,1.60,-32.67 618.64,1.95,-32.67 616.89,3.01,-32.67 615.82,4.78,-32.67 615.45,7.25,-32.67"/>
    </edge>
    <edge id=":G0_1" function="internal">
        <lane id=":G0_1_0" index="0" speed="13.89" length="14.40" shape="621.09,1.60,-32.67 606.69,1.60,-32.67"/>
    </edge>
    <edge id=":G0_2" function="internal">
        <lane id=":G0_2_0" index="0" speed="3.65" length="2.34" shape="621.09,1.60,-32.67 619.89,0.80,-32.67 619.49,0.00,-32.67"/>
    </edge>
    <edge id=":G0_9" function="internal">
        <lane id=":G0_9_0" index="0" speed="3.65" length="2.34" shape="619.49,0.00,-32.67 619.89,-0.80,-32.67 621.09,-1.60,-32.67"/>
    </edge>
    <edge id=":G0_3" function="internal">
        <lane id=":G0_3_0" index="0" speed="13.89" length="14.40" shape="606.69,-1.60,-32.67 621.09,-1.60,-32.67"/>
    </edge>
    <edge id=":G0_4" function="internal">
        <lane id=":G0_4_0" index="0" speed="7.98" length="5.93" shape="606.69,-1.60,-32.67 610.55,-1.05,-32.67 612.29,-0.00,-32.67"/>
    </edge>
    <edge id=":G0_5" function="internal">
        <lane id=":G0_5_0" index="0" speed="3.65" length="2.34" shape="606.69,-1.60,-32.67 607.89,-0.80,-32.67 608.29,0.00,-32.67"/>
    </edge>
    <edge id=":G0_10" function="internal">
        <lane id=":G0_10_0" index="0" speed="7.98" length="8.30" shape="612.29,-0.00,-32.67 613.30,0.61,-32.67 614.93,3.38,-32.67 615.45,7.25,-32.67"/>
    </edge>
    <edge id=":G0_11" function="internal">
        <lane id=":G0_11_0" index="0" speed="3.65" length="2.34" shape="608.29,0.00,-32.67 607.89,0.80,-32.67 606.69,1.60,-32.67"/>
    </edge>
    <edge id=":G0_6" function="internal">
        <lane id=":G0_6_0" index="0" speed="6.49" length="9.03" shape="612.25,7.22,-32.67 611.92,4.76,-32.67 610.89,3.00,-32.67 609.14,1.95,-32.67 606.69,1.60,-32.67"/>
    </edge>
    <edge id=":G0_7" function="internal">
        <lane id=":G0_7_0" index="0" speed="8.03" length="14.21" shape="612.25,7.22,-32.67 612.83,3.36,-32.67 614.50,0.60,-32.67 617.25,-1.05,-32.67 621.09,-1.60,-32.67"/>
    </edge>
    <edge id=":G0_8" function="internal">
        <lane id=":G0_8_0" index="0" speed="3.65" length="4.67" shape="612.25,7.22,-32.67 613.06,6.02,-32.67 613.86,5.63,-32.67 614.66,6.04,-32.67 615.45,7.25,-32.67"/>
    </edge>
    <edge id=":G1_0" function="internal">
        <lane id=":G1_0_0" index="0" speed="13.89" length="14.40" shape="620.15,101.60,-7.86 605.75,101.60,-7.86"/>
    </edge>
    <edge id=":G1_1" function="internal">
        <lane id=":G1_1_0" index="0" speed="7.98" length="5.93" shape="620.15,101.60,-7.86 616.28,101.05,-7.86 614.55,100.00,-7.86"/>
    </edge>
    <edge id=":G1_2" function="internal">
        <lane id=":G1_2_0" index="0" speed="3.65" length="2.34" shape="620.15,101.60,-7.86 618.95,100.80,-7.86 618.55,100.00,-7.86"/>
    </edge>
    <edge id=":G1_9" function="internal">
        <lane id=":G1_9_0" index="0" speed="7.98" length="8.30" shape="614.55,100.00,-7.86 613.54,99.39,-7.86 611.90,96.62,-7.86 611.39,92.75,-7.86"/>
    </edge>
    <edge id=":G1_10" function="internal">
        <lane id=":G1_10_0" index="0" speed="3.65" length="2.34" shape="618.55,100.00,-7.86 618.95,99.20,-7.86 620.15,98.40,-7.86"/>
    </edge>
    <edge id=":G1_3" function="internal">
        <lane id=":G1_3_0" index="0" speed="6.49" length="9.03" shape="614.59,92.78,-7.86 614.92,95.24,-7.86 615.95,97.00,-7.86 617.70,98.05,-7.86 620.15,98.40,-7.86"/>
    </edge>
    <edge id=":G1_4" function="internal">
        <lane id=":G1_4_0" index="0" speed="8.03" length="14.21" shape="614.59,92.78,-7.86 614.00,96.64,-7.86 612.34,99.40,-7.86 609.58,101.05,-7.86 605.75,101.60,-7.86"/>
    </edge>
    <edge id=":G1_5" function="internal">
        <lane id=":G1_5_0" index="0" speed="3.65" length="4.67" shape="614.59,92.78,-7.86 613.78,93.98,-7.86 612.97,94.37,-7.86 612.18,93.96,-7.86 611.39,92.75,-7.86"/>
    </edge>
    <edge id=":G1_6" function="internal">
        <lane id=":G1_6_0" index="0" speed="6.55" length="9.08" shape="605.75,98.40,-7.86 608.20,98.05,-7.86 609.95,96.99,-7.86 611.02,95.22,-7.86 611.39,92.75,-7.86"/>
    </edge>
    <edge id=":G1_7" function="internal">
        <lane id=":G1_7_0" index="0" speed="13.89" length="14.40" shape="605.75,98.40,-7.86 620.15,98.40,-7.86"/>
    </edge>