<?xml version="1.0" encoding="UTF-8"?>

<!-- generated on 07/28/20 19:11:44 by Eclipse SUMO netgenerate Version 1.5.0
<configuration xmlns:xsi="http://www.w3.org/2001/XMLSchema-instance" xsi:noNamespaceSchemaLocation="http://sumo.dlr.de/xsd/netgenerateConfiguration.xsd">

    <grid_network>
        <grid value="true"/>
        <grid.x-number value="21"/>
        <grid.y-number value="2"/>
    </grid_network>

    <output>
        <output-file value="5.net.xml"/>
    </output>

    <processing>
        <perturb-z value="25"/>
    </processing>

    <building_defaults>
        <default.speed value="100"/>
    </building_defaults>

    <random_number>
        <seed value="4310387"/>
    </random_number>

</configuration>
-->

<net version="1.3" junctionCornerDetail="5" limitTurnSpeed="5.50" xmlns:xsi="http://www.w3.org/2001/XMLSchema-instance" xsi:noNamespaceSchemaLocation="http://sumo.dlr.de/xsd/net_file.xsd">

    <location netOffset="0.00,0.00" convBoundary="0.00,0.00,2000.00,100.00" origBoundary="0.00,0.00,2000.00,100.00" projParameter="!"/>

    <edge id=":A0_0" function="internal">
        <lane id=":A0_0_0" index="0" speed="6.08" length="7.90" shape="-1.60,3.20,10.67 -1.30,1.10,11.11 -0.40,-0.40,11.47 1.10,-1.30,11.83 3.20,-1.60,12.27"/>
    </edge>
    <edge id=":A0_1" function="internal">
        <lane id=":A0_1_0" index="0" speed="3.90" length="3.05" shape="3.20,1.60,12.29 2.50,1.70,11.85 2.00,2.00,11.48 1.70,2.50,11.12 1.60,3.20,10.67"/>
    </edge>
    <edge id=":A1_0" function="internal">
        <lane id=":A1_0_0" index="0" speed="6.08" length="7.85" shape="3.20,101.60,-26.63 1.10,101.30,-26.28 -0.40,100.40,-25.99 -1.30,98.90,-25.70 -1.60,96.80,-25.34"/>
    </edge>
    <edge id=":A1_1" function="internal">
        <lane id=":A1_1_0" index="0" speed="3.90" length="2.89" shape="1.60,96.80,-25.34 1.70,97.50,-25.70 2.00,98.00,-25.99 2.50,98.30,-26.28 3.20,98.40,-26.63"/>
    </edge>
    <edge id=":B0_0" function="internal">
        <lane id=":B0_0_0" index="0" speed="6.51" length="9.03" shape="98.40,7.20,23.20 98.05,4.75,23.20 97.00,3.00,23.20 95.25,1.95,23.20 92.80,1.60,23.20"/>
    </edge>
    <edge id=":B0_1" function="internal">
        <lane id=":B0_1_0" index="0" speed="8.00" length="14.19" shape="98.40,7.20,23.20 98.95,3.35,23.20 100.60,0.60,23.20 103.35,-1.05,23.20 107.20,-1.60,23.20"/>
    </edge>
    <edge id=":B0_2" function="internal">
        <lane id=":B0_2_0" index="0" speed="3.65" length="4.67" shape="98.40,7.20,23.20 99.20,6.00,23.20 100.00,5.60,23.20 100.80,6.00,23.20 101.60,7.20,23.20"/>
    </edge>
    <edge id=":B0_3" function="internal">
        <lane id=":B0_3_0" index="0" speed="6.51" length="9.03" shape="107.20,1.60,23.20 104.75,1.95,23.20 103.00,3.00,23.20 101.95,4.75,23.20 101.60,7.20,23.20"/>
    </edge>
    <edge id=":B0_4" function="internal">
        <lane id=":B0_4_0" index="0" speed="100.00" length="14.40" shape="107.20,1.60,23.20 92.80,1.60,23.20"/>
    </edge>
    <edge id=":B0_5" function="internal">
        <lane id=":B0_5_0" index="0" speed="3.65" length="2.34" shape="107.20,1.60,23.20 106.00,0.80,23.20 105.60,0.00,23.20"/>
    </edge>
    <edge id=":B0_9" function="internal">
        <lane id=":B0_9_0" index="0" speed="3.65" length="2.34" shape="105.60,0.00,23.20 106.00,-0.80,23.20 107.20,-1.60,23.20"/>
    </edge>
    <edge id=":B0_6" function="internal">
        <lane id=":B0_6_0" index="0" speed="100.00" length="14.40" shape="92.80,-1.60,23.20 107.20,-1.60,23.20"/>
    </edge>
    <edge id=":B0_7" function="internal">
        <lane id=":B0_7_0" index="0" speed="8.00" length="5.93" shape="92.80,-1.60,23.20 96.65,-1.05,23.20 98.40,-0.00,23.20"/>
    </edge>
    <edge id=":B0_8" function="internal">
        <lane id=":B0_8_0" index="0" speed="3.65" length="2.34" shape="92.80,-1.60,23.20 94.00,-0.80,23.20 94.40,0.00,23.20"/>
    </edge>
    <edge id=":B0_10" function="internal">
        <lane id=":B0_10_0" index="0" speed="8.00" length="8.26" shape="98.40,-0.00,23.20 99.40,0.60,23.20 101.05,3.35,23.20 101.60,7.20,23.20"/>
    </edge>
    <edge id=":B0_11" function="internal">
        <lane id=":B0_11_0" index="0" speed="3.65" length="2.34" shape="94.40,0.00,23.20 94.00,0.80,23.20 92.80,1.60,23.20"/>
    </edge>
    <edge id=":B1_0" function="internal">
        <lane id=":B1_0_0" index="0" speed="100.00" length="14.40" shape="107.20,101.60,-28.44 92.80,101.60,-28.31"/>
    </edge>
    <edge id=":B1_1" function="internal">
        <lane id=":B1_1_0" index="0" speed="8.00" length="5.93" shape="107.20,101.60,-28.44 103.35,101.05,-28.44 101.60,100.00,-28.44"/>
    </edge>
    <edge id=":B1_2" function="internal">
        <lane id=":B1_2_0" index="0" speed="3.65" length="2.34" shape="107.20,101.60,-28.44 106.00,100.80,-28.44 105.60,100.00,-28.44"/>
    </edge>
    <edge id=":B1_9" function="internal">
        <lane id=":B1_9_0" index="0" speed="8.00" length="8.26" shape="101.60,100.00,-28.44 100.60,99.40,-28.44 98.95,96.65,-28.44 98.40,92.80,-28.44"/>
    </edge>
    <edge id=":B1_10" function="internal">
        <lane id=":B1_10_0" index="0" speed="3.65" length="2.34" shape="105.60,100.00,-28.44 106.00,99.20,-28.44 107.20,98.40,-28.44"/>
    </edge>
    <edge id=":B1_3" function="internal">
        <lane id=":B1_3_0" index="0" speed="6.51" length="9.03" shape="101.60,92.80,-28.44 101.95,95.25,-28.44 103.00,97.00,-28.44 104.75,98.05,-28.44 107.20,98.40,-28.44"/>
    </edge>
    <edge id=":B1_4" function="internal">
        <lane id=":B1_4_0" index="0" speed="8.00" length="14.19" shape="101.60,92.80,-28.44 101.05,96.65,-28.41 99.40,99.40,-28.38 96.65,101.05,-28.35 92.80,101.60,-28.31"/>
    </edge>
    <edge id=":B1_5" function="internal">
        <lane id=":B1_5_0" index="0" speed="3.65" length="4.67" shape="101.60,92.80,-28.44 100.80,94.00,-28.44 100.00,94.40,-28.44 99.20,94.00,-28.44 98.40,92.80,-28.44"/>
    </edge>
    <edge id=":B1_6" function="internal">
        <lane id=":B1_6_0" index="0" speed="6.51" length="9.03" shape="92.80,98.40,-28.31 95.25,98.05,-28.35 97.00,97.00,-28.38 98.05,95.25,-28.41 98.40,92.80,-28.44"/>
    </edge>
    <edge id=":B1_7" function="internal">
        <lane id=":B1_7_0" index="0" speed="100.00" length="14.40" shape="92.80,98.40,-28.31 107.20,98.40,-28.44"/>
    </edge>
    <edge id=":B1_8" function="internal">
        <lane id=":B1_8_0" index="0" speed="3.65" length="2.34" shape="92.80,98.40,-28.31 94.00,99.20,-28.31 94.40,100.00,-28.31"/>
    </edge>
    <edge id=":B1_11" function="internal">
        <lane id=":B1_11_0" index="0" speed="3.65" length="2.34" shape="94.40,100.00,-28.31 94.00,100.80,-28.31 92.80,101.60,-28.31"/>
    </edge>
    <edge id=":C0_0" function="internal">
        <lane id=":C0_0_0" index="0" speed="6.51" length="9.03" shape="198.40,7.20,-29.86 198.05,4.75,-29.86 197.00,3.00,-29.86 195.25,1.95,-29.86 192.80,1.60,-29.86"/>
    </edge>
    <edge id=":C0_1" function="internal">
        <lane id=":C0_1_0" index="0" speed="8.00" length="14.19" shape="198.40,7.20,-29.86 198.95,3.35,-29.86 200.60,0.60,-29.86 203.35,-1.05,-29.86 207.20,-1.60,-29.86"/>
    </edge>
    <edge id=":C0_2" function="internal">
        <lane id=":C0_2_0" index="0" speed="3.65" length="4.67" shape="198.40,7.20,-29.86 199.20,6.00,-29.86 200.00,5.60,-29.86 200.80,6.00,-29.86 201.60,7.20,-29.86"/>
    </edge>
    <edge id=":C0_3" function="internal">
        <lane id=":C0_3_0" index="0" speed="6.51" length="9.03" shape="207.20,1.60,-29.86 204.75,1.95,-29.86 203.00,3.00,-29.86 201.95,4.75,-29.86 201.60,7.20,-29.86"/>
    </edge>
    <edge id=":C0_4" function="internal">
        <lane id=":C0_4_0" index="0" speed="100.00" length="14.40" shape="207.20,1.60,-29.86 192.80,1.60,-29.86"/>
    </edge>
    <edge id=":C0_5" function="internal">
        <lane id=":C0_5_0" index="0" speed="3.65" length="2.34" shape="207.20,1.60,-29.86 206.00,0.80,-29.86 205.60,0.00,-29.86"/>
    </edge>
    <edge id=":C0_9" function="internal">
        <lane id=":C0_9_0" index="0" speed="3.65" length="2.34" shape="205.60,0.00,-29.86 206.00,-0.80,-29.86 207.20,-1.60,-29.86"/>
    </edge>
    <edge id=":C0_6" function="internal">
        <lane id=":C0_6_0" index="0" speed="100.00" length="14.40" shape="192.80,-1.60,-29.86 207.20,-1.60,-29.86"/>
    </edge>
    <edge id=":C0_7" function="internal">
        <lane id=":C0_7_0" index="0" speed="8.00" length="5.93" shape="192.80,-1.60,-29.86 196.65,-1.05,-29.86 198.40,0.00,-29.86"/>
    </edge>
    <edge id=":C0_8" function="internal">
        <lane id=":C0_8_0" index="0" speed="3.65" length="2.34" shape="192.80,-1.60,-29.86 194.00,-0.80,-29.86 194.40,0.00,-29.86"/>
    </edge>
    <edge id=":C0_10" function="internal">
        <lane id=":C0_10_0" index="0" speed="8.00" length="8.26" shape="198.40,0.00,-29.86 199.40,0.60,-29.86 201.05,3.35,-29.86 201.60,7.20,-29.86"/>
    </edge>
    <edge id=":C0_11" function="internal">
        <lane id=":C0_11_0" index="0" speed="3.65" length="2.34" shape="194.40,0.00,-29.86 194.00,0.80,-29.86 192.80,1.60,-29.86"/>
    </edge>
    <edge id=":C1_0" function="internal">
        <lane id=":C1_0_0" index="0" speed="100.00" length="14.40" shape="207.20,101.60,-39.15 192.80,101.60,-39.15"/>
    </edge>
    <edge id=":C1_1" function="internal">
        <lane id=":C1_1_0" index="0" speed="8.00" length="5.93" shape="207.20,101.60,-39.15 203.35,101.05,-39.15 201.60,100.00,-39.15"/>
    </edge>
    <edge id=":C1_2" function="internal">
        <lane id=":C1_2_0" index="0" speed="3.65" length="2.34" shape="207.20,101.60,-39.15 206.00,100.80,-39.15 205.60,100.00,-39.15"/>
    </edge>
    <edge id=":C1_9" function="internal">
        <lane id=":C1_9_0" index="0" speed="8.00" length="8.26" shape="201.60,100.00,-39.15 200.60,99.40,-39.15 198.95,96.65,-39.15 198.40,92.80,-39.15"/>
    </edge>
    <edge id=":C1_10" function="internal">
        <lane id=":C1_10_0" index="0" speed="3.65" length="2.34" shape="205.60,100.00,-39.15 206.00,99.20,-39.15 207.20,98.40,-39.15"/>
    </edge>
    <edge id=":C1_3" function="internal">
        <lane id=":C1_3_0" index="0" speed="6.51" length="9.03" shape="201.60,92.80,-39.15 201.95,95.25,-39.15 203.00,97.00,-39.15 204.75,98.05,-39.15 207.20,98.40,-39.15"/>
    </edge>
    <edge id=":C1_4" function="internal">
        <lane id=":C1_4_0" index="0" speed="8.00" length="14.19" shape="201.60,92.80,-39.15 201.05,96.65,-39.15 199.40,99.40,-39.15 196.65,101.05,-39.15 192.80,101.60,-39.15"/>
    </edge>
    <edge id=":C1_5" function="internal">
        <lane id=":C1_5_0" index="0" speed="3.65" length="4.67" shape="201.60,92.80,-39.15 200.80,94.00,-39.15 200.00,94.40,-39.15 199.20,94.00,-39.15 198.40,92.80,-39.15"/>
    </edge>
    <edge id=":C1_6" function="internal">
        <lane id=":C1_6_0" index="0" speed="6.51" length="9.03" shape="192.80,98.40,-39.15 195.25,98.05,-39.15 197.00,97.00,-39.15 198.05,95.25,-39.15 198.40,92.80,-39.15"/>
    </edge>
    <edge id=":C1_7" function="internal">
        <lane id=":C1_7_0" index="0" speed="100.00" length="14.40" shape="192.80,98.40,-39.15 207.20,98.40,-39.15"/>
    </edge>
    <edge id=":C1_8" function="internal">
        <lane id=":C1_8_0" index="0" speed="3.65" length="2.34" shape="192.80,98.40,-39.15 194.00,99.20,-39.15 194.40,100.00,-39.15"/>
    </edge>
    <edge id=":C1_11" function="internal">
        <lane id=":C1_11_0" index="0" speed="3.65" length="2.34" shape="194.40,100.00,-39.15 194.00,100.80,-39.15 192.80,101.60,-39.15"/>
    </edge>
    <edge id=":D0_0" function="internal">
        <lane id=":D0_0_0" index="0" speed="6.51" length="9.03" shape="298.40,7.20,-18.88 298.05,4.75,-18.88 297.00,3.00,-18.88 295.25,1.95,-18.88 292.80,1.60,-18.88"/>
    </edge>
    <edge id=":D0_1" function="internal">
        <lane id=":D0_1_0" index="0" speed="8.00" length="14.19" shape="298.40,7.20,-18.88 298.95,3.35,-18.88 300.60,0.60,-18.88 303.35,-1.05,-18.88 307.20,-1.60,-18.88"/>
    </edge>
    <edge id=":D0_2" function="internal">
        <lane id=":D0_2_0" index="0" speed="3.65" length="4.67" shape="298.40,7.20,-18.88 299.20,6.00,-18.88 300.00,5.60,-18.88 300.80,6.00,-18.88 301.60,7.20,-18.88"/>
    </edge>
    <edge id=":D0_3" function="internal">
        <lane id=":D0_3_0" index="0" speed="6.51" length="9.03" shape="307.20,1.60,-18.88 304.75,1.95,-18.88 303.00,3.00,-18.88 301.95,4.75,-18.88 301.60,7.20,-18.88"/>
    </edge>
    <edge id=":D0_4" function="internal">
        <lane id=":D0_4_0" index="0" speed="100.00" length="14.40" shape="307.20,1.60,-18.88 292.80,1.60,-18.88"/>
    </edge>
    <edge id=":D0_5" function="internal">
        <lane id=":D0_5_0" index="0" speed="3.65" length="2.34" shape="307.20,1.60,-18.88 306.00,0.80,-18.88 305.60,0.00,-18.88"/>
    </edge>
    <edge id=":D0_9" function="internal">
        <lane id=":D0_9_0" index="0" speed="3.65" length="2.34" shape="305.60,0.00,-18.88 306.00,-0.80,-18.88 307.20,-1.60,-18.88"/>
    </edge>
    <edge id=":D0_6" function="internal">
        <lane id=":D0_6_0" index="0" speed="100.00" length="14.40" shape="292.80,-1.60,-18.88 307.20,-1.60,-18.88"/>
    </edge>
    <edge id=":D0_7" function="internal">
        <lane id=":D0_7_0" index="0" speed="8.00" length="5.93" shape="292.80,-1.60,-18.88 296.65,-1.05,-18.88 298.40,-0.00,-18.88"/>
    </edge>
    <edge id=":D0_8" function="internal">
        <lane id=":D0_8_0" index="0" speed="3.65" length="2.34" shape="292.80,-1.60,-18.88 294.00,-0.80,-18.88 294.40,0.00,-18.88"/>
    </edge>
    <edge id=":D0_10" function="internal">
        <lane id=":D0_10_0" index="0" speed="8.00" length="8.26" shape="298.40,-0.00,-18.88 299.40,0.60,-18.88 301.05,3.35,-18.88 301.60,7.20,-18.88"/>
    </edge>
    <edge id=":D0_11" function="internal">
        <lane id=":D0_11_0" index="0" speed="3.65" length="2.34" shape="294.40,0.00,-18.88 294.00,0.80,-18.88 292.80,1.60,-18.88"/>
    </edge>
    <edge id=":D1_0" function="internal">
        <lane id=":D1_0_0" index="0" speed="100.00" length="14.40" shape="307.20,101.60,-23.29 292.80,101.60,-23.29"/>
    </edge>
    <edge id=":D1_1" function="internal">
        <lane id=":D1_1_0" index="0" speed="8.00" length="5.93" shape="307.20,101.60,-23.29 303.35,101.05,-23.29 301.60,100.00,-23.29"/>
    </edge>
    <edge id=":D1_2" function="internal">
        <lane id=":D1_2_0" index="0" speed="3.65" length="2.34" shape="307.20,101.60,-23.29 306.00,100.80,-23.29 305.60,100.00,-23.29"/>
    </edge>
    <edge id=":D1_9" function="internal">
        <lane id=":D1_9_0" index="0" speed="8.00" length="8.26" shape="301.60,100.00,-23.29 300.60,99.40,-23.29 298.95,96.65,-23.29 298.40,92.80,-23.29"/>
    </edge>
    <edge id=":D1_10" function="internal">
        <lane id=":D1_10_0" index="0" speed="3.65" length="2.34" shape="305.60,100.00,-23.29 306.00,99.20,-23.29 307.20,98.40,-23.29"/>
    </edge>
    <edge id=":D1_3" function="internal">
        <lane id=":D1_3_0" index="0" speed="6.51" length="9.03" shape="301.60,92.80,-23.29 301.95,95.25,-23.29 303.00,97.00,-23.29 304.75,98.05,-23.29 307.20,98.40,-23.29"/>
    </edge>
    <edge id=":D1_4" function="internal">
        <lane id=":D1_4_0" index="0" speed="8.00" length="14.19" shape="301.60,92.80,-23.29 301.05,96.65,-23.29 299.40,99.40,-23.29 296.65,101.05,-23.29 292.80,101.60,-23.29"/>
    </edge>
    <edge id=":D1_5" function="internal">
        <lane id=":D1_5_0" index="0" speed="3.65" length="4.67" shape="301.60,92.80,-23.29 300.80,94.00,-23.29 300.00,94.40,-23.29 299.20,94.00,-23.29 298.40,92.80,-23.29"/>
    </edge>
    <edge id=":D1_6" function="internal">
        <lane id=":D1_6_0" index="0" speed="6.51" length="9.03" shape="292.80,98.40,-23.29 295.25,98.05,-23.29 297.00,97.00,-23.29 298.05,95.25,-23.29 298.40,92.80,-23.29"/>
    </edge>
    <edge id=":D1_7" function="internal">
        <lane id=":D1_7_0" index="0" speed="100.00" length="14.40" shape="292.80,98.40,-23.29 307.20,98.40,-23.29"/>
    </edge>
    <edge id=":D1_8" function="internal">
        <lane id=":D1_8_0" index="0" speed="3.65" length="2.34" shape="292.80,98.40,-23.29 294.00,99.20,-23.29 294.40,100.00,-23.29"/>
    </edge>
    <edge id=":D1_11" function="internal">
        <lane id=":D1_11_0" index="0" speed="3.65" length="2.34" shape="294.40,100.00,-23.29 294.00,100.80,-23.29 292.80,101.60,-23.29"/>
    </edge>
    <edge id=":E0_0" function="internal">
        <lane id=":E0_0_0" index="0" speed="6.51" length="9.03" shape="398.40,7.20,71.02 398.05,4.75,71.02 397.00,3.00,71.02 395.25,1.95,71.02 392.80,1.60,71.02"/>
    </edge>
    <edge id=":E0_1" function="internal">
        <lane id=":E0_1_0" index="0" speed="8.00" length="14.19" shape="398.40,7.20,71.02 398.95,3.35,71.02 400.60,0.60,71.02 403.35,-1.05,71.02 407.20,-1.60,71.02"/>
    </edge>
    <edge id=":E0_2" function="internal">
        <lane id=":E0_2_0" index="0" speed="3.65" length="4.67" shape="398.40,7.20,71.02 399.20,6.00,71.02 400.00,5.60,71.02 400.80,6.00,71.02 401.60,7.20,71.02"/>
    </edge>
    <edge id=":E0_3" function="internal">
        <lane id=":E0_3_0" index="0" speed="6.51" length="9.03" shape="407.20,1.60,71.02 404.75,1.95,71.02 403.00,3.00,71.02 401.95,4.75,71.02 401.60,7.20,71.02"/>
    </edge>
    <edge id=":E0_4" function="internal">
        <lane id=":E0_4_0" index="0" speed="100.00" length="14.40" shape="407.20,1.60,71.02 392.80,1.60,71.02"/>
    </edge>
    <edge id=":E0_5" function="internal">
        <lane id=":E0_5_0" index="0" speed="3.65" length="2.34" shape="407.20,1.60,71.02 406.00,0.80,71.02 405.60,0.00,71.02"/>
    </edge>
    <edge id=":E0_9" function="internal">
        <lane id=":E0_9_0" index="0" speed="3.65" length="2.34" shape="405.60,0.00,71.02 406.00,-0.80,71.02 407.20,-1.60,71.02"/>
    </edge>
    <edge id=":E0_6" function="internal">
        <lane id=":E0_6_0" index="0" speed="100.00" length="14.40" shape="392.80,-1.60,71.02 407.20,-1.60,71.02"/>
    </edge>
    <edge id=":E0_7" function="internal">
        <lane id=":E0_7_0" index="0" speed="8.00" length="5.93" shape="392.80,-1.60,71.02 396.65,-1.05,71.02 398.40,-0.00,71.02"/>
    </edge>
    <edge id=":E0_8" function="internal">
        <lane id=":E0_8_0" index="0" speed="3.65" length="2.34" shape="392.80,-1.60,71.02 394.00,-0.80,71.02 394.40,0.00,71.02"/>
    </edge>
    <edge id=":E0_10" function="internal">
        <lane id=":E0_10_0" index="0" speed="8.00" length="8.26" shape="398.40,-0.00,71.02 399.40,0.60,71.02 401.05,3.35,71.02 401.60,7.20,71.02"/>
    </edge>
    <edge id=":E0_11" function="internal">
        <lane id=":E0_11_0" index="0" speed="3.65" length="2.34" shape="394.40,0.00,71.02 394.00,0.80,71.02 392.80,1.60,71.02"/>
    </edge>
    <edge id=":E1_0" function="internal">
        <lane id=":E1_0_0" index="0" speed="100.00" length="14.40" shape="407.20,101.60,-33.69 392.80,101.60,-33.69"/>
    </edge>
    <edge id=":E1_1" function="internal">
        <lane id=":E1_1_0" index="0" speed="8.00" length="5.93" shape="407.20,101.60,-33.69 403.35,101.05,-33.69 401.60,100.00,-33.69"/>
    </edge>
    <edge id=":E1_2" function="internal">
        <lane id=":E1_2_0" index="0" speed="3.65" length="2.34" shape="407.20,101.60,-33.69 406.00,100.80,-33.69 405.60,100.00,-33.69"/>
    </edge>
    <edge id=":E1_9" function="internal">
        <lane id=":E1_9_0" index="0" speed="8.00" length="8.26" shape="401.60,100.00,-33.69 400.60,99.40,-33.69 398.95,96.65,-33.69 398.40,92.80,-33.69"/>
    </edge>
    <edge id=":E1_10" function="internal">
        <lane id=":E1_10_0" index="0" speed="3.65" length="2.34" shape="405.60,100.00,-33.69 406.00,99.20,-33.69 407.20,98.40,-33.69"/>
    </edge>
    <edge id=":E1_3" function="internal">
        <lane id=":E1_3_0" index="0" speed="6.51" length="9.03" shape="401.60,92.80,-33.69 401.95,95.25,-33.69 403.00,97.00,-33.69 404.75,98.05,-33.69 407.20,98.40,-33.69"/>
    </edge>
    <edge id=":E1_4" function="internal">
        <lane id=":E1_4_0" index="0" speed="8.00" length="14.19" shape="401.60,92.80,-33.69 401.05,96.65,-33.69 399.40,99.40,-33.69 396.65,101.05,-33.69 392.80,101.60,-33.69"/>
    </edge>
    <edge id=":E1_5" function="internal">
        <lane id=":E1_5_0" index="0" speed="3.65" length="4.67" shape="401.60,92.80,-33.69 400.80,94.00,-33.69 400.00,94.40,-33.69 399.20,94.00,-33.69 398.40,92.80,-33.69"/>
    </edge>
    <edge id=":E1_6" function="internal">
        <lane id=":E1_6_0" index="0" speed="6.51" length="9.03" shape="392.80,98.40,-33.69 395.25,98.05,-33.69 397.00,97.00,-33.69 398.05,95.25,-33.69 398.40,92.80,-33.69"/>
    </edge>
    <edge id=":E1_7" function="internal">
        <lane id=":E1_7_0" index="0" speed="100.00" length="14.40" shape="392.80,98.40,-33.69 407.20,98.40,-33.69"/>
    </edge>
    <edge id=":E1_8" function="internal">
        <lane id=":E1_8_0" index="0" speed="3.65" length="2.34" shape="392.80,98.40,-33.69 394.00,99.20,-33.69 394.40,100.00,-33.69"/>
    </edge>
    <edge id=":E1_11" function="internal">
        <lane id=":E1_11_0" index="0" speed="3.65" length="2.34" shape="394.40,100.00,-33.69 394.00,100.80,-33.69 392.80,101.60,-33.69"/>
    </edge>
    <edge id=":F0_0" function="internal">
        <lane id=":F0_0_0" index="0" speed="6.51" length="9.03" shape="498.40,7.20,-10.09 498.05,4.75,-10.09 497.00,3.00,-10.09 495.25,1.95,-10.09 492.80,1.60,-10.09"/>
    </edge>
    <edge id=":F0_1" function="internal">
        <lane id=":F0_1_0" index="0" speed="8.00" length="14.19" shape="498.40,7.20,-10.09 498.95,3.35,-10.09 500.60,0.60,-10.09 503.35,-1.05,-10.09 507.20,-1.60,-10.09"/>
    </edge>
    <edge id=":F0_2" function="internal">
        <lane id=":F0_2_0" index="0" speed="3.65" length="4.67" shape="498.40,7.20,-10.09 499.20,6.00,-10.09 500.00,5.60,-10.09 500.80,6.00,-10.09 501.60,7.20,-10.09"/>
    </edge>
    <edge id=":F0_3" function="internal">
        <lane id=":F0_3_0" index="0" speed="6.51" length="9.03" shape="507.20,1.60,-10.09 504.75,1.95,-10.09 503.00,3.00,-10.09 501.95,4.75,-10.09 501.60,7.20,-10.09"/>
    </edge>
    <edge id=":F0_4" function="internal">
        <lane id=":F0_4_0" index="0" speed="100.00" length="14.40" shape="507.20,1.60,-10.09 492.80,1.60,-10.09"/>
    </edge>
    <edge id=":F0_5" function="internal">
        <lane id=":F0_5_0" index="0" speed="3.65" length="2.34" shape="507.20,1.60,-10.09 506.00,0.80,-10.09 505.60,0.00,-10.09"/>
    </edge>
    <edge id=":F0_9" function="internal">
        <lane id=":F0_9_0" index="0" speed="3.65" length="2.34" shape="505.60,0.00,-10.09 506.00,-0.80,-10.09 507.20,-1.60,-10.09"/>
    </edge>
    <edge id=":F0_6" function="internal">
        <lane id=":F0_6_0" index="0" speed="100.00" length="14.40" shape="492.80,-1.60,-10.09 507.20,-1.60,-10.09"/>
    </edge>
    <edge id=":F0_7" function="internal">
        <lane id=":F0_7_0" index="0" speed="8.00" length="5.93" shape="492.80,-1.60,-10.09 496.65,-1.05,-10.09 498.40,-0.00,-10.09"/>
    </edge>
    <edge id=":F0_8" function="internal">
        <lane id=":F0_8_0" index="0" speed="3.65" length="2.34" shape="492.80,-1.60,-10.09 494.00,-0.80,-10.09 494.40,0.00,-10.09"/>
    </edge>
    <edge id=":F0_10" function="internal">
        <lane id=":F0_10_0" index="0" speed="8.00" length="8.26" shape="498.40,-0.00,-10.09 499.40,0.60,-10.09 501.05,3.35,-10.09 501.60,7.20,-10.09"/>
    </edge>
    <edge id=":F0_11" function="internal">
        <lane id=":F0_11_0" index="0" speed="3.65" length="2.34" shape="494.40,0.00,-10.09 494.00,0.80,-10.09 492.80,1.60,-10.09"/>
    </edge>
    <edge id=":F1_0" function="internal">
        <lane id=":F1_0_0" index="0" speed="100.00" length="14.40" shape="507.20,101.60,-39.78 492.80,101.60,-39.78"/>
    </edge>
    <edge id=":F1_1" function="internal">
        <lane id=":F1_1_0" index="0" speed="8.00" length="5.93" shape="507.20,101.60,-39.78 503.35,101.05,-39.78 501.60,100.00,-39.78"/>
    </edge>
    <edge id=":F1_2" function="internal">
        <lane id=":F1_2_0" index="0" speed="3.65" length="2.34" shape="507.20,101.60,-39.78 506.00,100.80,-39.78 505.60,100.00,-39.78"/>
    </edge>
    <edge id=":F1_9" function="internal">
        <lane id=":F1_9_0" index="0" speed="8.00" length="8.26" shape="501.60,100.00,-39.78 500.60,99.40,-39.78 498.95,96.65,-39.78 498.40,92.80,-39.78"/>
    </edge>
    <edge id=":F1_10" function="internal">
        <lane id=":F1_10_0" index="0" speed="3.65" length="2.34" shape="505.60,100.00,-39.78 506.00,99.20,-39.78 507.20,98.40,-39.78"/>
    </edge>
    <edge id=":F1_3" function="internal">
        <lane id=":F1_3_0" index="0" speed="6.51" length="9.03" shape="501.60,92.80,-39.78 501.95,95.25,-39.78 503.00,97.00,-39.78 504.75,98.05,-39.78 507.20,98.40,-39.78"/>
    </edge>
    <edge id=":F1_4" function="internal">
        <lane id=":F1_4_0" index="0" speed="8.00" length="14.19" shape="501.60,92.80,-39.78 501.05,96.65,-39.78 499.40,99.40,-39.78 496.65,101.05,-39.78 492.80,101.60,-39.78"/>
    </edge>
    <edge id=":F1_5" function="internal">
        <lane id=":F1_5_0" index="0" speed="3.65" length="4.67" shape="501.60,92.80,-39.78 500.80,94.00,-39.78 500.00,94.40,-39.78 499.20,94.00,-39.78 498.40,92.80,-39.78"/>
    </edge>
    <edge id=":F1_6" function="internal">
        <lane id=":F1_6_0" index="0" speed="6.51" length="9.03" shape="492.80,98.40,-39.78 495.25,98.05,-39.78 497.00,97.00,-39.78 498.05,95.25,-39.78 498.40,92.80,-39.78"/>
    </edge>
    <edge id=":F1_7" function="internal">
        <lane id=":F1_7_0" index="0" speed="100.00" length="14.40" shape="492.80,98.40,-39.78 507.20,98.40,-39.78"/>
    </edge>
    <edge id=":F1_8" function="internal">
        <lane id=":F1_8_0" index="0" speed="3.65" length="2.34" shape="492.80,98.40,-39.78 494.00,99.20,-39.78 494.40,100.00,-39.78"/>
    </edge>
    <edge id=":F1_11" function="internal">
        <lane id=":F1_11_0" index="0" speed="3.65" length="2.34" shape="494.40,100.00,-39.78 494.00,100.80,-39.78 492.80,101.60,-39.78"/>
    </edge>
    <edge id=":G0_0" function="internal">
        <lane id=":G0_0_0" index="0" speed="6.51" length="9.03" shape="598.40,7.20,13.28 598.05,4.75,13.28 597.00,3.00,13.28 595.25,1.95,13.28 592.80,1.60,13.28"/>
    </edge>
    <edge id=":G0_1" function="internal">
        <lane id=":G0_1_0" index="0" speed="8.00" length="14.19" shape="598.40,7.20,13.28 598.95,3.35,13.28 600.60,0.60,13.28 603.35,-1.05,13.28 607.20,-1.60,13.28"/>
    </edge>
    <edge id=":G0_2" function="internal">
        <lane id=":G0_2_0" index="0" speed="3.65" length="4.67" shape="598.40,7.20,13.28 599.20,6.00,13.28 600.00,5.60,13.28 600.80,6.00,13.28 601.60,7.20,13.28"/>
    </edge>
    <edge id=":G0_3" function="internal">
        <lane id=":G0_3_0" index="0" speed="6.51" length="9.03" shape="607.20,1.60,13.28 604.75,1.95,13.28 603.00,3.00,13.28 601.95,4.75,13.28 601.60,7.20,13.28"/>
    </edge>
    <edge id=":G0_4" function="internal">
        <lane id=":G0_4_0" index="0" speed="100.00" length="14.40" shape="607.20,1.60,13.28 592.80,1.60,13.28"/>
    </edge>
    <edge id=":G0_5" function="internal">
        <lane id=":G0_5_0" index="0" speed="3.65" length="2.34" shape="607.20,1.60,13.28 606.00,0.80,13.28 605.60,0.00,13.28"/>
    </edge>
    <edge id=":G0_9" function="internal">
        <lane id=":G0_9_0" index="0" speed="3.65" length="2.34" shape="605.60,0.00,13.28 606.00,-0.80,13.28 607.20,-1.60,13.28"/>
    </edge>
    <edge id=":G0_6" function="internal">
        <lane id=":G0_6_0" index="0" speed="100.00" length="14.40" shape="592.80,-1.60,13.28 607.20,-1.60,13.28"/>
    </edge>
    <edge id=":G0_7" function="internal">
        <lane id=":G0_7_0" index="0" speed="8.00" length="5.93" shape="592.80,-1.60,13.28 596.65,-1.05,13.28 598.40,0.00,13.28"/>
    </edge>
    <edge id=":G0_8" function="internal">
        <lane id=":G0_8_0" index="0" speed="3.65" length="2.34" shape="592.80,-1.60,13.28 594.00,-0.80,13.28 594.40,0.00,13.28"/>
    </edge>
    <edge id=":G0_10" function="internal">
        <lane id=":G0_10_0" index="0" speed="8.00" length="8.26" shape="598.40,0.00,13.28 599.40,0.60,13.28 601.05,3.35,13.28 601.60,7.20,13.28"/>
    </edge>
    <edge id=":G0_11" function="internal">
        <lane id=":G0_11_0" index="0" speed="3.65" length="2.34" shape="594.40,0.00,13.28 594.00,0.80,13.28 592.80,1.60,13.28"/>
    </edge>
    <edge id=":G1_0" function="internal">
        <lane id=":G1_0_0" index="0" speed="100.00" length="14.40" shape="607.20,101.60,-20.34 592.80,101.60,-20.34"/>
    </edge>
    <edge id=":G1_1" function="internal">
        <lane id=":G1_1_0" index="0" speed="8.00" length="5.93" shape="607.20,101.60,-20.34 603.35,101.05,-20.34 601.60,100.00,-20.34"/>
    </edge>
    <edge id=":G1_2" function="internal">
        <lane id=":G1_2_0" index="0" speed="3.65" length="2.34" shape="607.20,101.60,-20.34 606.00,100.80,-20.34 605.60,100.00,-20.34"/>
    </edge>
    <edge id=":G1_9" function="internal">
        <lane id=":G1_9_0" index="0" speed="8.00" length="8.26" shape="601.60,100.00,-20.34 600.60,99.40,-20.34 598.95,96.65,-20.34 598.40,92.80,-20.34"/>
    </edge>
    <edge id=":G1_10" function="internal">
        <lane id=":G1_10_0" index="0" speed="3.65" length="2.34" shape="605.60,100.00,-20.34 606.00,99.20,-20.34 607.20,98.40,-20.34"/>
    </edge>
    <edge id=":G1_3" function="internal">
        <lane id=":G1_3_0" index="0" speed="6.51" length="9.03" shape="601.60,92.80,-20.34 601.95,95.25,-20.34 603.00,97.00,-20.34 604.75,98.05,-20.34 607.20,98.40,-20.34"/>
    </edge>
    <edge id=":G1_4" function="internal">
        <lane id=":G1_4_0" index="0" speed="8.00" length="14.19" shape="601.60,92.80,-20.34 601.05,96.65,-20.34 599.40,99.40,-20.34 596.65,101.05,-20.34 592.80,101.60,-20.34"/>
    </edge>
    <edge id=":G1_5" function="internal">
        <lane id=":G1_5_0" index="0" speed="3.65" length="4.67" shape="601.60,92.80,-20.34 600.80,94.00,-20.34 600.00,94.40,-20.34 599.20,94.00,-20.34 598.40,92.80,-20.34"/>
    </edge>
    <edge id=":G1_6" function="internal">
        <lane id=":G1_6_0" index="0" speed="6.51" length="9.03" shape="592.80,98.40,-20.34 595.25,98.05,-20.34 597.00,97.00,-20.34 598.05,95.25,-20.34 598.40,92.80,-20.34"/>
    </edge>