<?xml version="1.0" encoding="UTF-8"?>

<!-- generated on 07/22/20 21:49:26 by Eclipse SUMO netgenerate Version 1.5.0
<configuration xmlns:xsi="http://www.w3.org/2001/XMLSchema-instance" xsi:noNamespaceSchemaLocation="http://sumo.dlr.de/xsd/netgenerateConfiguration.xsd">

    <grid_network>
        <grid value="true"/>
        <grid.x-number value="20"/>
        <grid.y-number value="2"/>
    </grid_network>

    <output>
        <output-file value="5.net.xml"/>
    </output>

    <processing>
        <perturb-x value="40"/>
        <perturb-z value="100"/>
    </processing>

    <random_number>
        <seed value="34528834"/>
    </random_number>

</configuration>
-->

<net version="1.3" junctionCornerDetail="5" limitTurnSpeed="5.50" xmlns:xsi="http://www.w3.org/2001/XMLSchema-instance" xsi:noNamespaceSchemaLocation="http://sumo.dlr.de/xsd/net_file.xsd">

    <location netOffset="3.20,0.00" convBoundary="0.00,0.00,1950.75,100.00" origBoundary="-3.20,0.00,1947.55,100.00" projParameter="!"/>

    <edge id=":A0_0" function="internal">
        <lane id=":A0_0_0" index="0" speed="6.12" length="10.05" shape="0.15,4.90,12.06 -0.50,2.06,11.90 0.04,0.03,11.79 1.75,-1.19,11.67 4.63,-1.60,11.52"/>
    </edge>
    <edge id=":A0_1" function="internal">
        <lane id=":A0_1_0" index="0" speed="3.93" length="3.42" shape="4.63,1.60,11.36 3.67,1.74,11.56 3.10,2.14,11.71 2.92,2.82,11.86 3.14,3.77,12.06"/>
    </edge>
    <edge id=":A1_0" function="internal">
        <lane id=":A1_0_0" index="0" speed="6.19" length="6.65" shape="40.10,101.60,-27.71 38.58,101.41,-28.55 37.32,100.83,-29.30 36.34,99.86,-30.06 35.62,98.50,-30.89"/>
    </edge>
    <edge id=":A1_1" function="internal">
        <lane id=":A1_1_0" index="0" speed="3.96" length="3.44" shape="38.61,97.37,-30.89 38.85,97.82,-30.15 39.18,98.14,-29.47 39.60,98.34,-28.80 40.10,98.40,-28.05"/>
    </edge>
    <edge id=":B0_0" function="internal">
        <lane id=":B0_0_0" index="0" speed="7.48" length="10.23" shape="113.01,8.14,-47.58 112.05,5.28,-47.58 110.61,3.23,-47.58 108.69,2.01,-47.58 106.28,1.60,-47.58"/>
    </edge>
    <edge id=":B0_1" function="internal">
        <lane id=":B0_1_0" index="0" speed="7.67" length="15.08" shape="113.01,8.14,-47.58 112.69,3.88,-47.58 113.89,0.83,-47.58 116.61,-0.99,-47.58 120.84,-1.60,-47.58"/>
    </edge>
    <edge id=":B0_2" function="internal">
        <lane id=":B0_2_0" index="0" speed="3.65" length="4.67" shape="113.01,8.14,-47.58 113.53,6.79,-47.58 114.23,6.23,-47.58 115.09,6.45,-47.58 116.13,7.45,-47.58"/>
    </edge>
    <edge id=":B0_3" function="internal">
        <lane id=":B0_3_0" index="0" speed="6.09" length="9.06" shape="120.84,1.60,-47.58 118.30,1.97,-47.58 116.67,3.06,-47.58 115.94,4.89,-47.58 116.13,7.45,-47.58"/>
    </edge>
    <edge id=":B0_4" function="internal">
        <lane id=":B0_4_0" index="0" speed="13.89" length="14.55" shape="120.84,1.60,-47.58 106.28,1.60,-47.58"/>
    </edge>
    <edge id=":B0_5" function="internal">
        <lane id=":B0_5_0" index="0" speed="3.65" length="2.34" shape="120.84,1.60,-47.58 119.64,0.80,-47.58 119.24,0.00,-47.58"/>
    </edge>
    <edge id=":B0_9" function="internal">
        <lane id=":B0_9_0" index="0" speed="3.65" length="2.34" shape="119.24,0.00,-47.58 119.64,-0.80,-47.58 120.84,-1.60,-47.58"/>
    </edge>
    <edge id=":B0_6" function="internal">
        <lane id=":B0_6_0" index="0" speed="13.89" length="14.55" shape="106.28,-1.60,-47.58 120.84,-1.60,-47.58"/>
    </edge>
    <edge id=":B0_7" function="internal">
        <lane id=":B0_7_0" index="0" speed="8.83" length="5.62" shape="106.28,-1.60,-47.58 109.85,-1.03,-47.58 111.57,0.00,-47.58"/>
    </edge>
    <edge id=":B0_8" function="internal">
        <lane id=":B0_8_0" index="0" speed="3.65" length="2.34" shape="106.28,-1.60,-47.58 107.48,-0.80,-47.58 107.88,0.00,-47.58"/>
    </edge>
    <edge id=":B0_10" function="internal">
        <lane id=":B0_10_0" index="0" speed="8.83" length="8.99" shape="111.57,0.00,-47.58 112.68,0.66,-47.58 114.77,3.49,-47.58 116.13,7.45,-47.58"/>
    </edge>
    <edge id=":B0_11" function="internal">
        <lane id=":B0_11_0" index="0" speed="3.65" length="2.34" shape="107.88,0.00,-47.58 107.48,0.80,-47.58 106.28,1.60,-47.58"/>
    </edge>
    <edge id=":B1_0" function="internal">
        <lane id=":B1_0_0" index="0" speed="13.89" length="14.55" shape="141.38,101.60,134.19 126.82,101.60,134.19"/>
    </edge>
    <edge id=":B1_1" function="internal">
        <lane id=":B1_1_0" index="0" speed="8.83" length="5.62" shape="141.38,101.60,134.19 137.81,101.03,134.19 136.09,100.00,134.19"/>
    </edge>
    <edge id=":B1_2" function="internal">
        <lane id=":B1_2_0" index="0" speed="3.65" length="2.34" shape="141.38,101.60,134.19 140.18,100.80,134.19 139.78,100.00,134.19"/>
    </edge>
    <edge id=":B1_9" function="internal">
        <lane id=":B1_9_0" index="0" speed="8.83" length="8.99" shape="136.09,100.00,134.19 134.98,99.34,134.19 132.89,96.51,134.19 131.53,92.55,134.19"/>
    </edge>
    <edge id=":B1_10" function="internal">
        <lane id=":B1_10_0" index="0" speed="3.65" length="2.34" shape="139.78,100.00,134.19 140.18,99.20,134.19 141.38,98.40,134.19"/>
    </edge>
    <edge id=":B1_3" function="internal">
        <lane id=":B1_3_0" index="0" speed="7.48" length="10.23" shape="134.65,91.86,134.19 135.61,94.72,134.19 137.05,96.77,134.19 138.97,97.99,134.19 141.38,98.40,134.19"/>
    </edge>
    <edge id=":B1_4" function="internal">
        <lane id=":B1_4_0" index="0" speed="7.67" length="15.08" shape="134.65,91.86,134.19 134.97,96.12,134.19 133.76,99.17,134.19 131.05,100.99,134.19 126.82,101.60,134.19"/>
    </edge>
    <edge id=":B1_5" function="internal">
        <lane id=":B1_5_0" index="0" speed="3.65" length="4.67" shape="134.65,91.86,134.19 134.13,93.21,134.19 133.43,93.77,134.19 132.57,93.55,134.19 131.53,92.55,134.19"/>
    </edge>
    <edge id=":B1_6" function="internal">
        <lane id=":B1_6_0" index="0" speed="6.09" length="9.06" shape="126.82,98.40,134.19 129.36,98.03,134.19 130.99,96.94,134.19 131.72,95.11,134.19 131.53,92.55,134.19"/>
    </edge>
    <edge id=":B1_7" function="internal">
        <lane id=":B1_7_0" index="0" speed="13.89" length="14.55" shape="126.82,98.40,134.19 141.38,98.40,134.19"/>
    </edge>
    <edge id=":B1_8" function="internal">
        <lane id=":B1_8_0" index="0" speed="3.65" length="2.34" shape="126.82,98.40,134.19 128.02,99.20,134.19 128.42,100.00,134.19"/>
    </edge>
    <edge id=":B1_11" function="internal">
        <lane id=":B1_11_0" index="0" speed="3.65" length="2.34" shape="128.42,100.00,134.19 128.02,100.80,134.19 126.82,101.60,134.19"/>
    </edge>
    <edge id=":C0_0" function="internal">
        <lane id=":C0_0_0" index="0" speed="11.29" length="13.90" shape="175.98,9.34,73.62 172.90,5.95,73.62 170.02,3.53,73.62 167.35,2.08,73.62 164.87,1.60,73.62"/>
    </edge>
    <edge id=":C0_1" function="internal">
        <lane id=":C0_1_0" index="0" speed="7.38" length="18.18" shape="175.98,9.34,73.62 172.93,4.55,73.62 172.78,1.13,73.62 175.52,-0.92,73.62 181.15,-1.60,73.62"/>
    </edge>
    <edge id=":C0_2" function="internal">
        <lane id=":C0_2_0" index="0" speed="3.65" length="4.67" shape="175.98,9.34,73.62 175.83,7.90,73.62 176.20,7.09,73.62 177.07,6.89,73.62 178.45,7.31,73.62"/>
    </edge>
    <edge id=":C0_3" function="internal">
        <lane id=":C0_3_0" index="0" speed="5.53" length="9.49" shape="181.15,1.60,73.62 178.21,1.96,73.62 176.78,3.03,73.62 176.86,4.81,73.62 178.45,7.31,73.62"/>
    </edge>
    <edge id=":C0_4" function="internal">
        <lane id=":C0_4_0" index="0" speed="13.89" length="16.28" shape="181.15,1.60,73.62 164.87,1.60,73.62"/>
    </edge>
    <edge id=":C0_5" function="internal">
        <lane id=":C0_5_0" index="0" speed="3.65" length="2.34" shape="181.15,1.60,73.62 179.95,0.80,73.62 179.55,0.00,73.62"/>
    </edge>
    <edge id=":C0_9" function="internal">
        <lane id=":C0_9_0" index="0" speed="3.65" length="2.34" shape="179.55,0.00,73.62 179.95,-0.80,73.62 181.15,-1.60,73.62"/>
    </edge>
    <edge id=":C0_6" function="internal">
        <lane id=":C0_6_0" index="0" speed="13.89" length="16.28" shape="164.87,-1.60,73.62 181.15,-1.60,73.62"/>
    </edge>
    <edge id=":C0_7" function="internal">
        <lane id=":C0_7_0" index="0" speed="12.34" length="5.58" shape="164.87,-1.60,73.62 168.07,-1.04,73.62 170.15,0.00,73.62"/>
    </edge>
    <edge id=":C0_8" function="internal">
        <lane id=":C0_8_0" index="0" speed="3.65" length="2.34" shape="164.87,-1.60,73.62 166.07,-0.80,73.62 166.47,0.00,73.62"/>
    </edge>
    <edge id=":C0_10" function="internal">
        <lane id=":C0_10_0" index="0" speed="12.34" length="11.14" shape="170.15,0.00,73.62 171.40,0.63,73.62 174.86,3.41,73.62 178.45,7.31,73.62"/>
    </edge>
    <edge id=":C0_11" function="internal">
        <lane id=":C0_11_0" index="0" speed="3.65" length="2.34" shape="166.47,0.00,73.62 166.07,0.80,73.62 164.87,1.60,73.62"/>
    </edge>
    <edge id=":C1_0" function="internal">
        <lane id=":C1_0_0" index="0" speed="13.89" length="16.28" shape="257.99,101.60,-89.72 241.71,101.60,-89.72"/>
    </edge>
    <edge id=":C1_1" function="internal">
        <lane id=":C1_1_0" index="0" speed="12.34" length="5.58" shape="257.99,101.60,-89.72 254.79,101.04,-89.72 252.71,100.00,-89.72"/>
    </edge>
    <edge id=":C1_2" function="internal">
        <lane id=":C1_2_0" index="0" speed="3.65" length="2.34" shape="257.99,101.60,-89.72 256.79,100.80,-89.72 256.39,100.00,-89.72"/>
    </edge>
    <edge id=":C1_9" function="internal">
        <lane id=":C1_9_0" index="0" speed="12.34" length="11.14" shape="252.71,100.00,-89.72 251.46,99.37,-89.72 248.00,96.59,-89.72 244.41,92.69,-89.72"/>
    </edge>
    <edge id=":C1_10" function="internal">
        <lane id=":C1_10_0" index="0" speed="3.65" length="2.34" shape="256.39,100.00,-89.72 256.79,99.20,-89.72 257.99,98.40,-89.72"/>
    </edge>
    <edge id=":C1_3" function="internal">
        <lane id=":C1_3_0" index="0" speed="11.29" length="13.90" shape="246.88,90.66,-89.72 249.96,94.05,-89.72 252.83,96.47,-89.72 255.51,97.92,-89.72 257.99,98.40,-89.72"/>
    </edge>
    <edge id=":C1_4" function="internal">
        <lane id=":C1_4_0" index="0" speed="7.38" length="18.18" shape="246.88,90.66,-89.72 249.92,95.45,-89.72 250.08,98.87,-89.72 247.34,100.92,-89.72 241.71,101.60,-89.72"/>
    </edge>
    <edge id=":C1_5" function="internal">
        <lane id=":C1_5_0" index="0" speed="3.65" length="4.67" shape="246.88,90.66,-89.72 247.02,92.10,-89.72 246.66,92.91,-89.72 245.79,93.11,-89.72 244.41,92.69,-89.72"/>
    </edge>
    <edge id=":C1_6" function="internal">
        <lane id=":C1_6_0" index="0" speed="5.53" length="9.49" shape="241.71,98.40,-89.72 244.65,98.04,-89.72 246.08,96.97,-89.72 246.00,95.19,-89.72 244.41,92.69,-89.72"/>
    </edge>
    <edge id=":C1_7" function="internal">
        <lane id=":C1_7_0" index="0" speed="13.89" length="16.28" shape="241.71,98.40,-89.72 257.99,98.40,-89.72"/>
    </edge>
    <edge id=":C1_8" function="internal">
        <lane id=":C1_8_0" index="0" speed="3.65" length="2.34" shape="241.71,98.40,-89.72 242.91,99.20,-89.72 243.31,100.00,-89.72"/>
    </edge>
    <edge id=":C1_11" function="internal">
        <lane id=":C1_11_0" index="0" speed="3.65" length="2.34" shape="243.31,100.00,-89.72 242.91,100.80,-89.72 241.71,101.60,-89.72"/>
    </edge>
    <edge id=":D0_0" function="internal">
        <lane id=":D0_0_0" index="0" speed="9.86" length="12.68" shape="352.32,1.60,-51.72 349.89,2.07,-51.72 347.48,3.48,-51.72 345.09,5.84,-51.72 342.73,9.14,-51.72"/>
    </edge>
    <edge id=":D0_1" function="internal">
        <lane id=":D0_1_0" index="0" speed="13.89" length="15.55" shape="352.32,1.60,-51.72 336.77,1.60,-51.72"/>
    </edge>
    <edge id=":D0_2" function="internal">
        <lane id=":D0_2_0" index="0" speed="3.65" length="2.34" shape="352.32,1.60,-51.72 351.12,0.80,-51.72 350.72,0.00,-51.72"/>
    </edge>
    <edge id=":D0_9" function="internal">
        <lane id=":D0_9_0" index="0" speed="3.65" length="2.34" shape="350.72,0.00,-51.72 351.12,-0.80,-51.72 352.32,-1.60,-51.72"/>
    </edge>
    <edge id=":D0_3" function="internal">
        <lane id=":D0_3_0" index="0" speed="13.89" length="15.55" shape="336.77,-1.60,-51.72 352.32,-1.60,-51.72"/>
    </edge>
    <edge id=":D0_4" function="internal">
        <lane id=":D0_4_0" index="0" speed="7.39" length="6.72" shape="336.77,-1.60,-51.72 341.89,-0.93,-51.72 343.14,0.00,-51.72"/>
    </edge>
    <edge id=":D0_5" function="internal">
        <lane id=":D0_5_0" index="0" speed="3.65" length="2.34" shape="336.77,-1.60,-51.72 337.97,-0.80,-51.72 338.37,0.00,-51.72"/>
    </edge>
    <edge id=":D0_10" function="internal">
        <lane id=":D0_10_0" index="0" speed="7.39" length="10.34" shape="343.14,0.00,-51.72 344.59,1.08,-51.72 344.87,4.44,-51.72 342.73,9.14,-51.72"/>
    </edge>
    <edge id=":D0_11" function="internal">
        <lane id=":D0_11_0" index="0" speed="3.65" length="2.34" shape="338.37,0.00,-51.72 337.97,0.80,-51.72 336.77,1.60,-51.72"/>
    </edge>
    <edge id=":D0_6" function="internal">
        <lane id=":D0_6_0" index="0" speed="5.63" length="9.28" shape="340.01,7.44,-51.72 341.18,4.89,-51.72 341.03,3.06,-51.72 339.56,1.97,-51.72 336.77,1.60,-51.72"/>
    </edge>
    <edge id=":D0_7" function="internal">
        <lane id=":D0_7_0" index="0" speed="11.00" length="15.91" shape="340.01,7.44,-51.72 342.90,3.49,-51.72 345.91,0.66,-51.72 349.05,-1.03,-51.72 352.32,-1.60,-51.72"/>
    </edge>
    <edge id=":D0_8" function="internal">
        <lane id=":D0_8_0" index="0" speed="3.65" length="4.67" shape="340.01,7.44,-51.72 341.33,6.85,-51.72 342.22,6.93,-51.72 342.68,7.69,-51.72 342.73,9.14,-51.72"/>
    </edge>
    <edge id=":D1_0" function="internal">
        <lane id=":D1_0_0" index="0" speed="13.89" length="15.55" shape="293.87,101.60,-40.64 278.32,101.60,-40.64"/>
    </edge>
    <edge id=":D1_1" function="internal">
        <lane id=":D1_1_0" index="0" speed="7.39" length="6.72" shape="293.87,101.60,-40.64 288.75,100.93,-40.64 287.51,100.00,-40.64"/>
    </edge>
    <edge id=":D1_2" function="internal">
        <lane id=":D1_2_0" index="0" speed="3.65" length="2.34" shape="293.87,101.60,-40.64 292.67,100.80,-40.64 292.27,100.00,-40.64"/>
    </edge>
    <edge id=":D1_9" function="internal">
        <lane id=":D1_9_0" index="0" speed="7.39" length="10.34" shape="287.51,100.00,-40.64 286.05,98.92,-40.64 285.77,95.56,-40.64 287.92,90.86,-40.64"/>
    </edge>
    <edge id=":D1_10" function="internal">
        <lane id=":D1_10_0" index="0" speed="3.65" length="2.34" shape="292.27,100.00,-40.64 292.67,99.20,-40.64 293.87,98.40,-40.64"/>
    </edge>
    <edge id=":D1_3" function="internal">
        <lane id=":D1_3_0" index="0" speed="5.63" length="9.28" shape="290.63,92.56,-40.64 289.47,95.11,-40.64 289.62,96.94,-40.64 291.08,98.03,-40.64 293.87,98.40,-40.64"/>
    </edge>
    <edge id=":D1_4" function="internal">
        <lane id=":D1_4_0" index="0" speed="11.00" length="15.91" shape="290.63,92.56,-40.64 287.74,96.51,-40.64 284.73,99.34,-40.64 281.59,101.03,-40.64 278.32,101.60,-40.64"/>
    </edge>
    <edge id=":D1_5" function="internal">
        <lane id=":D1_5_0" index="0" speed="3.65" length="4.67" shape="290.63,92.56,-40.64 289.32,93.15,-40.64 288.43,93.07,-40.64 287.96,92.31,-40.64 287.92,90.86,-40.64"/>
    </edge>
    <edge id=":D1_6" function="internal">
        <lane id=":D1_6_0" index="0" speed="9.86" length="12.68" shape="278.32,98.40,-40.64 280.76,97.93,-40.64 283.17,96.52,-40.64 285.55,94.16,-40.64 287.92,90.86,-40.64"/>
    </edge>
    <edge id=":D1_7" function="internal">
        <lane id=":D1_7_0" index="0" speed="13.89" length="15.55" shape="278.32,98.40,-40.64 293.87,98.40,-40.64"/>
    </edge>
    <edge id=":D1_8" function="internal">
        <lane id=":D1_8_0" index="0" speed="3.65" length="2.34" shape="278.32,98.40,-40.64 279.52,99.20,-40.64 279.92,100.00,-40.64"/>
    </edge>
    <edge id=":D1_11" function="internal">
        <lane id=":D1_11_0" index="0" speed="3.65" length="2.34" shape="279.92,100.00,-40.64 279.52,100.80,-40.64 278.32,101.60,-40.64"/>
    </edge>
    <edge id=":E0_0" function="internal">
        <lane id=":E0_0_0" index="0" speed="7.43" length="10.18" shape="406.97,1.60,-70.94 404.57,2.01,-70.94 402.66,3.23,-70.94 401.24,5.26,-70.94 400.30,8.10,-70.94"/>
    </edge>
    <edge id=":E0_1" function="internal">
        <lane id=":E0_1_0" index="0" speed="13.89" length="14.54" shape="406.97,1.60,-70.94 392.43,1.60,-70.94"/>
    </edge>
    <edge id=":E0_2" function="internal">
        <lane id=":E0_2_0" index="0" speed="3.65" length="2.34" shape="406.97,1.60,-70.94 405.77,0.80,-70.94 405.37,0.00,-70.94"/>
    </edge>
    <edge id=":E0_9" function="internal">
        <lane id=":E0_9_0" index="0" speed="3.65" length="2.34" shape="405.37,0.00,-70.94 405.77,-0.80,-70.94 406.97,-1.60,-70.94"/>
    </edge>
    <edge id=":E0_3" function="internal">
        <lane id=":E0_3_0" index="0" speed="13.89" length="14.54" shape="392.43,-1.60,-70.94 406.97,-1.60,-70.94"/>
    </edge>
    <edge id=":E0_4" function="internal">
        <lane id=":E0_4_0" index="0" speed="7.68" length="6.04" shape="392.43,-1.60,-70.94 396.65,-0.99,-70.94 398.13,-0.00,-70.94"/>
    </edge>
    <edge id=":E0_5" function="internal">
        <lane id=":E0_5_0" index="0" speed="3.65" length="2.34" shape="392.43,-1.60,-70.94 393.63,-0.80,-70.94 394.03,0.00,-70.94"/>
    </edge>
    <edge id=":E0_10" function="internal">
        <lane id=":E0_10_0" index="0" speed="7.68" length="9.01" shape="398.13,-0.00,-70.94 399.36,0.83,-70.94 400.58,3.86,-70.94 400.30,8.10,-70.94"/>
    </edge>
    <edge id=":E0_11" function="internal">
        <lane id=":E0_11_0" index="0" speed="3.65" length="2.34" shape="394.03,0.00,-70.94 393.63,0.80,-70.94 392.43,1.60,-70.94"/>
    </edge>
    <edge id=":E0_6" function="internal">
        <lane id=":E0_6_0" index="0" speed="6.10" length="9.06" shape="397.17,7.44,-70.94 397.34,4.89,-70.94 396.61,3.06,-70.94 394.97,1.97,-70.94 392.43,1.60,-70.94"/>
    </edge>
    <edge id=":E0_7" function="internal">
        <lane id=":E0_7_0" index="0" speed="8.79" length="14.59" shape="397.17,7.44,-70.94 398.50,3.49,-70.94 400.58,0.66,-70.94 403.40,-1.03,-70.94 406.97,-1.60,-70.94"/>
    </edge>
    <edge id=":E0_8" function="internal">
        <lane id=":E0_8_0" index="0" speed="3.65" length="4.67" shape="397.17,7.44,-70.94 398.20,6.44,-70.94 399.07,6.21,-70.94 399.77,6.77,-70.94 400.30,8.10,-70.94"/>
    </edge>
    <edge id=":E1_0" function="internal">
        <lane id=":E1_0_0" index="0" speed="13.89" length="14.54" shape="387.23,101.60,-176.06 372.69,101.60,-176.06"/>
    </edge>
    <edge id=":E1_1" function="internal">
        <lane id=":E1_1_0" index="0" speed="7.68" length="6.04" shape="387.23,101.60,-176.06 383.02,100.99,-176.06 381.53,100.00,-176.06"/>
    </edge>
    <edge id=":E1_2" function="internal">
        <lane id=":E1_2_0" index="0" speed="3.65" length="2.34" shape="387.23,101.60,-176.06 386.03,100.80,-176.06 385.63,100.00,-176.06"/>
    </edge>
    <edge id=":E1_9" function="internal">
        <lane id=":E1_9_0" index="0" speed="7.68" length="9.01" shape="381.53,100.00,-176.06 380.30,99.17,-176.06 379.08,96.14,-176.06 379.36,91.90,-176.06"/>
    </edge>
    <edge id=":E1_10" function="internal">
        <lane id=":E1_10_0" index="0" speed="3.65" length="2.34" shape="385.63,100.00,-176.06 386.03,99.20,-176.06 387.23,98.40,-176.06"/>
    </edge>
    <edge id=":E1_3" function="internal">
        <lane id=":E1_3_0" index="0" speed="6.10" length="9.06" shape="382.49,92.56,-176.06 382.32,95.11,-176.06 383.06,96.94,-176.06 384.69,98.03,-176.06 387.23,98.40,-176.06"/>
    </edge>
    <edge id=":E1_4" function="internal">
        <lane id=":E1_4_0" index="0" speed="8.79" length="14.59" shape="382.49,92.56,-176.06 381.16,96.51,-176.06 379.08,99.34,-176.06 376.26,101.03,-176.06 372.69,101.60,-176.06"/>
    </edge>
    <edge id=":E1_5" function="internal">
        <lane id=":E1_5_0" index="0" speed="3.65" length="4.67" shape="382.49,92.56,-176.06 381.46,93.56,-176.06 380.59,93.79,-176.06 379.89,93.23,-176.06 379.36,91.90,-176.06"/>
    </edge>
    <edge id=":E1_6" function="internal">
        <lane id=":E1_6_0" index="0" speed="7.43" length="10.18" shape="372.69,98.40,-176.06 375.09,97.99,-176.06 377.00,96.77,-176.06 378.42,94.74,-176.06 379.36,91.90,-176.06"/>
    </edge>
    <edge id=":E1_7" function="internal">
        <lane id=":E1_7_0" index="0" speed="13.89" length="14.54" shape="372.69,98.40,-176.06 387.23,98.40,-176.06"/>
    </edge>
    <edge id=":E1_8" function="internal">
        <lane id=":E1_8_0" index="0" speed="3.65" length="2.34" shape="372.69,98.40,-176.06 373.89,99.20,-176.06 374.29,100.00,-176.06"/>
    </edge>
    <edge id=":E1_11" function="internal">
        <lane id=":E1_11_0" index="0" speed="3.65" length="2.34" shape="374.29,100.00,-176.06 373.89,100.80,-176.06 372.69,101.60,-176.06"/>
    </edge>
    <edge id=":F0_0" function="internal">
        <lane id=":F0_0_0" index="0" speed="9.27" length="12.13" shape="460.23,8.99,67.00 458.18,5.76,67.00 456.02,3.45,67.00 453.73,2.06,67.00 451.31,1.60,67.00"/>
    </edge>
    <edge id=":F0_1" function="internal">
        <lane id=":F0_1_0" index="0" speed="7.42" length="16.58" shape="460.23,8.99,67.00 458.50,4.36,67.00 458.98,1.05,67.00 461.67,-0.94,67.00 466.57,-1.60,67.00"/>
    </edge>
    <edge id=":F0_2" function="internal">
        <lane id=":F0_2_0" index="0" speed="3.65" length="4.67" shape="460.23,8.99,67.00 460.36,7.56,67.00 460.88,6.83,67.00 461.78,6.80,67.00 463.05,7.48,67.00"/>
    </edge>
    <edge id=":F0_3" function="internal">
        <lane id=":F0_3_0" index="0" speed="5.70" length="9.21" shape="466.57,1.60,67.00 463.85,1.97,67.00 462.35,3.07,67.00 462.09,4.91,67.00 463.05,7.48,67.00"/>
    </edge>
    <edge id=":F0_4" function="internal">
        <lane id=":F0_4_0" index="0" speed="13.89" length="15.26" shape="466.57,1.60,67.00 451.31,1.60,67.00"/>
    </edge>
    <edge id=":F0_5" function="internal">
        <lane id=":F0_5_0" index="0" speed="3.65" length="2.34" shape="466.57,1.60,67.00 465.37,0.80,67.00 464.97,0.00,67.00"/>
    </edge>
    <edge id=":F0_9" function="internal">
        <lane id=":F0_9_0" index="0" speed="3.65" length="2.34" shape="464.97,0.00,67.00 465.37,-0.80,67.00 466.57,-1.60,67.00"/>
    </edge>
    <edge id=":F0_6" function="internal">
        <lane id=":F0_6_0" index="0" speed="13.89" length="15.26" shape="451.31,-1.60,67.00 466.57,-1.60,67.00"/>
    </edge>
    <edge id=":F0_7" function="internal">
        <lane id=":F0_7_0" index="0" speed="10.45" length="5.48" shape="451.31,-1.60,67.00 454.62,-1.03,67.00 456.48,0.00,67.00"/>
    </edge>
    <edge id=":F0_8" function="internal">
        <lane id=":F0_8_0" index="0" speed="3.65" length="2.34" shape="451.31,-1.60,67.00 452.51,-0.80,67.00 452.91,0.00,67.00"/>
    </edge>
    <edge id=":F0_10" function="internal">
        <lane id=":F0_10_0" index="0" speed="10.45" length="10.10" shape="456.48,0.00,67.00 457.68,0.67,67.00 460.49,3.51,67.00 463.05,7.48,67.00"/>
    </edge>
    <edge id=":F0_11" function="internal">
        <lane id=":F0_11_0" index="0" speed="3.65" length="2.34" shape="452.91,0.00,67.00 452.51,0.80,67.00 451.31,1.60,67.00"/>
    </edge>
    <edge id=":F1_0" function="internal">
        <lane id=":F1_0_0" index="0" speed="13.89" length="15.26" shape="516.65,101.60,-218.15 501.39,101.60,-218.15"/>
    </edge>
    <edge id=":F1_1" function="internal">
        <lane id=":F1_1_0" index="0" speed="10.45" length="5.48" shape="516.65,101.60,-218.15 513.34,101.03,-218.15 511.49,100.00,-218.15"/>
    </edge>
    <edge id=":F1_2" function="internal">
        <lane id=":F1_2_0" index="0" speed="3.65" length="2.34" shape="516.65,101.60,-218.15 515.45,100.80,-218.15 515.05,100.00,-218.15"/>
    </edge>
    <edge id=":F1_9" function="internal">
        <lane id=":F1_9_0" index="0" speed="10.45" length="10.10" shape="511.49,100.00,-218.15 510.28,99.33,-218.15 507.47,96.49,-218.15 504.92,92.52,-218.15"/>
    </edge>
    <edge id=":F1_10" function="internal">
        <lane id=":F1_10_0" index="0" speed="3.65" length="2.34" shape="515.05,100.00,-218.15 515.45,99.20,-218.15 516.65,98.40,-218.15"/>
    </edge>
    <edge id=":F1_3" function="internal">
        <lane id=":F1_3_0" index="0" speed="9.27" length="12.13" shape="507.74,91.01,-218.15 509.78,94.24,-218.15 511.94,96.55,-218.15 514.24,97.94,-218.15 516.65,98.40,-218.15"/>
    </edge>
    <edge id=":F1_4" function="internal">
        <lane id=":F1_4_0" index="0" speed="7.42" length="16.58" shape="507.74,91.01,-218.15 509.47,95.64,-218.15 508.99,98.95,-218.15 506.30,100.94,-218.15 501.39,101.60,-218.15"/>
    </edge>
    <edge id=":F1_5" function="internal">
        <lane id=":F1_5_0" index="0" speed="3.65" length="4.67" shape="507.74,91.01,-218.15 507.60,92.44,-218.15 507.08,93.17,-218.15 506.19,93.20,-218.15 504.92,92.52,-218.15"/>
    </edge>
    <edge id=":F1_6" function="internal">
        <lane id=":F1_6_0" index="0" speed="5.70" length="9.21" shape="501.39,98.40,-218.15 504.12,98.03,-218.15 505.61,96.93,-218.15 505.88,95.09,-218.15 504.92,92.52,-218.15"/>
    </edge>
    <edge id=":F1_7" function="internal">
        <lane id=":F1_7_0" index="0" speed="13.89" length="15.26" shape="501.39,98.40,-218.15 516.65,98.40,-218.15"/>
    </edge>
    <edge id=":F1_8" function="internal">
        <lane id=":F1_8_0" index="0" speed="3.65" length="2.34" shape="501.39,98.40,-218.15 502.59,99.20,-218.15 502.99,100.00,-218.15"/>
    </edge>
    <edge id=":F1_11" function="internal">
        <lane id=":F1_11_0" index="0" speed="3.65" length="2.34" shape="502.99,100.00,-218.15 502.59,100.80,-218.15 501.39,101.60,-218.15"/>
    </edge>
    <edge id=":G0_0" function="internal">
        <lane id=":G0_0_0" index="0" speed="8.79" length="11.65" shape="579.26,8.83,-62.94 577.50,5.67,-62.94 575.52,3.41,-62.94 573.33,2.05,-62.94 570.92,1.60,-62.94"/>
    </edge>
    <edge id=":G0_1" function="internal">
        <lane id=":G0_1_0" index="0" speed="7.46" length="16.19" shape="579.26,8.83,-62.94 577.89,4.27,-62.94 578.55,1.01,-62.94 581.24,-0.95,-62.94 585.96,-1.60,-62.94"/>
    </edge>
    <edge id=":G0_2" function="internal">
        <lane id=":G0_2_0" index="0" speed="3.65" length="4.67" shape="579.26,8.83,-62.94 579.49,7.41,-62.94 580.05,6.71,-62.94 580.94,6.74,-62.94 582.17,7.50,-62.94"/>
    </edge>
    <edge id=":G0_3" function="internal">
        <lane id=":G0_3_0" index="0" speed="5.78" length="9.16" shape="585.96,1.60,-62.94 583.29,1.97,-62.94 581.77,3.08,-62.94 581.39,4.92,-62.94 582.17,7.50,-62.94"/>
    </edge>
    <edge id=":G0_4" function="internal">
        <lane id=":G0_4_0" index="0" speed="13.89" length="15.04" shape="585.96,1.60,-62.94 570.92,1.60,-62.94"/>
    </edge>
    <edge id=":G0_5" function="internal">
        <lane id=":G0_5_0" index="0" speed="3.65" length="2.34" shape="585.96,1.60,-62.94 584.76,0.80,-62.94 584.36,0.00,-62.94"/>
    </edge>
    <edge id=":G0_9" function="internal">
        <lane id=":G0_9_0" index="0" speed="3.65" length="2.34" shape="584.36,0.00,-62.94 584.76,-0.80,-62.94 585.96,-1.60,-62.94"/>
    </edge>
    <edge id=":G0_6" function="internal">
        <lane id=":G0_6_0" index="0" speed="13.89" length="15.04" shape="570.92,-1.60,-62.94 585.96,-1.60,-62.94"/>
    </edge>
    <edge id=":G0_7" function="internal">
        <lane id=":G0_7_0" index="0" speed="10.00" length="5.49" shape="570.92,-1.60,-62.94 574.28,-1.03,-62.94 576.09,0.00,-62.94"/>
    </edge>
    <edge id=":G0_8" function="internal">
        <lane id=":G0_8_0" index="0" speed="3.65" length="2.34" shape="570.92,-1.60,-62.94 572.12,-0.80,-62.94 572.52,0.00,-62.94"/>
    </edge>
    <edge id=":G0_10" function="internal">
        <lane id=":G0_10_0" index="0" speed="10.00" length="9.82" shape="576.09,0.00,-62.94 577.28,0.68,-62.94 579.91,3.52,-62.94 582.17,7.50,-62.94"/>
    </edge>
    <edge id=":G0_11" function="internal">
        <lane id=":G0_11_0" index="0" speed="3.65" length="2.34" shape="572.52,0.00,-62.94 572.12,0.80,-62.94 570.92,1.60,-62.94"/>
    </edge>
    <edge id=":G1_0" function="internal">
        <lane id=":G1_0_0" index="0" speed="13.89" length="15.04" shape="628.76,101.60,-17.74 613.72,101.60,-17.74"/>
    </edge>
    <edge id=":G1_1" function="internal">
        <lane id=":G1_1_0" index="0" speed="10.00" length="5.49" shape="628.76,101.60,-17.74 625.40,101.03,-17.74 623.59,100.00,-17.74"/>
    </edge>
    <edge id=":G1_2" function="internal">
        <lane id=":G1_2_0" index="0" speed="3.65" length="2.34" shape="628.76,101.60,-17.74 627.56,100.80,-17.74 627.16,100.00,-17.74"/>
    </edge>
    <edge id=":G1_9" function="internal">
        <lane id=":G1_9_0" index="0" speed="10.00" length="9.82" shape="623.59,100.00,-17.74 622.41,99.32,-17.74 619.78,96.48,-17.74 617.51,92.50,-17.74"/>
    </edge>
    <edge id=":G1_10" function="internal">
        <lane id=":G1_10_0" index="0" speed="3.65" length="2.34" shape="627.16,100.00,-17.74 627.56,99.20,-17.74 628.76,98.40,-17.74"/>
    </edge>
    <edge id=":G1_3" function="internal">
        <lane id=":G1_3_0" index="0" speed="8.79" length="11.65" shape="620.42,91.17,-17.74 622.18,94.33,-17.74 624.16,96.59,-17.74 626.35,97.95,-17.74 628.76,98.40,-17.74"/>
    </edge>
    <edge id=":G1_4" function="internal">
        <lane id=":G1_4_0" index="0" speed="7.46" length="16.19" shape="620.42,91.17,-17.74 621.79,95.73,-17.74 621.13,98.99,-17.74 618.44,100.95,-17.74 613.72,101.60,-17.74"/>
    </edge>
    <edge id=":G1_5" function="internal">
        <lane id=":G1_5_0" index="0" speed="3.65" length="4.67" shape="620.42,91.17,-17.74 620.19,92.59,-17.74 619.63,93.29,-17.74 618.74,93.26,-17.74 617.51,92.50,-17.74"/>
    </edge>
    <edge id=":G1_6" function="internal">