<?xml version="1.0" encoding="UTF-8"?>

<!-- generated on 07/24/20 11:51:57 by Eclipse SUMO netgenerate Version 1.5.0
<configuration xmlns:xsi="http://www.w3.org/2001/XMLSchema-instance" xsi:noNamespaceSchemaLocation="http://sumo.dlr.de/xsd/netgenerateConfiguration.xsd">

    <grid_network>
        <grid value="true"/>
        <grid.x-number value="20"/>
        <grid.y-number value="2"/>
    </grid_network>

    <output>
        <output-file value="6.net.xml"/>
    </output>

    <processing>
        <perturb-x value="10"/>
        <perturb-z value="30"/>
    </processing>

    <random_number>
        <seed value="8351704"/>
    </random_number>

</configuration>
-->

<net version="1.3" junctionCornerDetail="5" limitTurnSpeed="5.50" xmlns:xsi="http://www.w3.org/2001/XMLSchema-instance" xsi:noNamespaceSchemaLocation="http://sumo.dlr.de/xsd/net_file.xsd">

    <location netOffset="6.81,0.00" convBoundary="0.00,0.00,1905.21,100.00" origBoundary="-6.81,0.00,1898.40,100.00" projParameter="!"/>

    <edge id=":A0_0" function="internal">
        <lane id=":A0_0_0" index="0" speed="3.91" length="2.66" shape="10.83,1.60,-0.69 10.17,1.69,-0.98 9.69,1.97,-1.23 9.38,2.43,-1.48 9.23,3.07,-1.77"/>
    </edge>
    <edge id=":A0_1" function="internal">
        <lane id=":A0_1_0" index="0" speed="6.09" length="7.39" shape="6.04,2.82,-1.77 6.47,0.89,-1.48 7.41,-0.49,-1.24 8.87,-1.32,-0.99 10.83,-1.60,-0.70"/>
    </edge>
    <edge id=":A1_0" function="internal">
        <lane id=":A1_0_0" index="0" speed="6.07" length="8.63" shape="3.46,101.60,-28.18 1.22,101.28,-28.93 -0.33,100.31,-29.53 -1.18,98.69,-30.13 -1.32,96.42,-30.88"/>
    </edge>
    <edge id=":A1_1" function="internal">
        <lane id=":A1_1_0" index="0" speed="3.90" length="3.65" shape="1.87,96.67,-30.88 1.92,97.43,-30.21 2.20,97.97,-29.67 2.71,98.29,-29.13 3.46,98.40,-28.46"/>
    </edge>
    <edge id=":B0_0" function="internal">
        <lane id=":B0_0_0" index="0" speed="7.09" length="9.77" shape="113.38,1.60,4.00 110.97,1.99,4.00 109.12,3.15,4.00 107.84,5.10,4.00 107.13,7.82,4.00"/>
    </edge>
    <edge id=":B0_1" function="internal">
        <lane id=":B0_1_0" index="0" speed="13.89" length="14.46" shape="113.38,1.60,4.00 98.92,1.60,4.00"/>
    </edge>
    <edge id=":B0_2" function="internal">
        <lane id=":B0_2_0" index="0" speed="3.65" length="2.34" shape="113.38,1.60,4.00 112.18,0.80,4.00 111.78,0.00,4.00"/>
    </edge>
    <edge id=":B0_9" function="internal">
        <lane id=":B0_9_0" index="0" speed="3.65" length="2.34" shape="111.78,0.00,4.00 112.18,-0.80,4.00 113.38,-1.60,4.00"/>
    </edge>
    <edge id=":B0_3" function="internal">
        <lane id=":B0_3_0" index="0" speed="13.89" length="14.46" shape="98.92,-1.60,4.00 113.38,-1.60,4.00"/>
    </edge>
    <edge id=":B0_4" function="internal">
        <lane id=":B0_4_0" index="0" speed="7.78" length="5.98" shape="98.92,-1.60,4.00 103.00,-1.01,4.00 104.56,-0.00,4.00"/>
    </edge>
    <edge id=":B0_5" function="internal">
        <lane id=":B0_5_0" index="0" speed="3.65" length="2.34" shape="98.92,-1.60,4.00 100.12,-0.80,4.00 100.52,0.00,4.00"/>
    </edge>
    <edge id=":B0_10" function="internal">
        <lane id=":B0_10_0" index="0" speed="7.78" length="8.76" shape="104.56,-0.00,4.00 105.73,0.75,4.00 107.11,3.70,4.00 107.13,7.82,4.00"/>
    </edge>
    <edge id=":B0_11" function="internal">
        <lane id=":B0_11_0" index="0" speed="3.65" length="2.34" shape="100.52,0.00,4.00 100.12,0.80,4.00 98.92,1.60,4.00"/>
    </edge>
    <edge id=":B0_6" function="internal">
        <lane id=":B0_6_0" index="0" speed="6.23" length="9.05" shape="103.96,7.38,4.00 103.95,4.85,4.00 103.10,3.05,4.00 101.43,1.96,4.00 98.92,1.60,4.00"/>
    </edge>
    <edge id=":B0_7" function="internal">
        <lane id=":B0_7_0" index="0" speed="8.49" length="14.43" shape="103.96,7.38,4.00 105.01,3.45,4.00 106.94,0.65,4.00 109.72,-1.04,4.00 113.38,-1.60,4.00"/>
    </edge>
    <edge id=":B0_8" function="internal">
        <lane id=":B0_8_0" index="0" speed="3.65" length="4.67" shape="103.96,7.38,4.00 104.92,6.30,4.00 105.77,6.01,4.00 106.50,6.52,4.00 107.13,7.82,4.00"/>
    </edge>
    <edge id=":B1_0" function="internal">
        <lane id=":B1_0_0" index="0" speed="13.89" length="14.46" shape="100.49,101.60,61.93 86.03,101.60,61.93"/>
    </edge>
    <edge id=":B1_1" function="internal">
        <lane id=":B1_1_0" index="0" speed="7.78" length="5.98" shape="100.49,101.60,61.93 96.42,101.01,61.93 94.85,100.00,61.93"/>
    </edge>
    <edge id=":B1_2" function="internal">
        <lane id=":B1_2_0" index="0" speed="3.65" length="2.34" shape="100.49,101.60,61.93 99.29,100.80,61.93 98.89,100.00,61.93"/>
    </edge>
    <edge id=":B1_9" function="internal">
        <lane id=":B1_9_0" index="0" speed="7.78" length="8.76" shape="94.85,100.00,61.93 93.69,99.25,61.93 92.31,96.30,61.93 92.28,92.18,61.93"/>
    </edge>
    <edge id=":B1_10" function="internal">
        <lane id=":B1_10_0" index="0" speed="3.65" length="2.34" shape="98.89,100.00,61.93 99.29,99.20,61.93 100.49,98.40,61.93"/>
    </edge>
    <edge id=":B1_3" function="internal">
        <lane id=":B1_3_0" index="0" speed="6.23" length="9.05" shape="95.45,92.62,61.93 95.47,95.15,61.93 96.32,96.95,61.93 97.99,98.04,61.93 100.49,98.40,61.93"/>
    </edge>
    <edge id=":B1_4" function="internal">
        <lane id=":B1_4_0" index="0" speed="8.49" length="14.43" shape="95.45,92.62,61.93 94.40,96.55,61.93 92.48,99.35,61.93 89.69,101.04,61.93 86.03,101.60,61.93"/>
    </edge>
    <edge id=":B1_5" function="internal">
        <lane id=":B1_5_0" index="0" speed="3.65" length="4.67" shape="95.45,92.62,61.93 94.50,93.70,61.93 93.65,93.99,61.93 92.91,93.48,61.93 92.28,92.18,61.93"/>
    </edge>
    <edge id=":B1_6" function="internal">
        <lane id=":B1_6_0" index="0" speed="7.09" length="9.77" shape="86.03,98.40,61.93 88.45,98.01,61.93 90.29,96.85,61.93 91.57,94.90,61.93 92.28,92.18,61.93"/>
    </edge>
    <edge id=":B1_7" function="internal">
        <lane id=":B1_7_0" index="0" speed="13.89" length="14.46" shape="86.03,98.40,61.93 100.49,98.40,61.93"/>
    </edge>
    <edge id=":B1_8" function="internal">
        <lane id=":B1_8_0" index="0" speed="3.65" length="2.34" shape="86.03,98.40,61.93 87.23,99.20,61.93 87.63,100.00,61.93"/>
    </edge>
    <edge id=":B1_11" function="internal">
        <lane id=":B1_11_0" index="0" speed="3.65" length="2.34" shape="87.63,100.00,61.93 87.23,100.80,61.93 86.03,101.60,61.93"/>
    </edge>
    <edge id=":C0_0" function="internal">
        <lane id=":C0_0_0" index="0" speed="7.44" length="10.18" shape="207.26,8.11,14.14 206.33,5.26,14.14 204.91,3.23,14.14 202.99,2.01,14.14 200.59,1.60,14.14"/>
    </edge>
    <edge id=":C0_1" function="internal">
        <lane id=":C0_1_0" index="0" speed="7.68" length="15.05" shape="207.26,8.11,14.14 206.98,3.86,14.14 208.20,0.83,14.14 210.92,-0.99,14.14 215.13,-1.60,14.14"/>
    </edge>
    <edge id=":C0_2" function="internal">
        <lane id=":C0_2_0" index="0" speed="3.65" length="4.67" shape="207.26,8.11,14.14 207.80,6.77,14.14 208.50,6.21,14.14 209.36,6.44,14.14 210.39,7.44,14.14"/>
    </edge>
    <edge id=":C0_3" function="internal">
        <lane id=":C0_3_0" index="0" speed="6.10" length="9.06" shape="215.13,1.60,14.14 212.59,1.97,14.14 210.96,3.06,14.14 210.23,4.89,14.14 210.39,7.44,14.14"/>
    </edge>
    <edge id=":C0_4" function="internal">
        <lane id=":C0_4_0" index="0" speed="13.89" length="14.54" shape="215.13,1.60,14.14 200.59,1.60,14.14"/>
    </edge>
    <edge id=":C0_5" function="internal">
        <lane id=":C0_5_0" index="0" speed="3.65" length="2.34" shape="215.13,1.60,14.14 213.93,0.80,14.14 213.53,0.00,14.14"/>
    </edge>
    <edge id=":C0_9" function="internal">
        <lane id=":C0_9_0" index="0" speed="3.65" length="2.34" shape="213.53,0.00,14.14 213.93,-0.80,14.14 215.13,-1.60,14.14"/>
    </edge>
    <edge id=":C0_6" function="internal">
        <lane id=":C0_6_0" index="0" speed="13.89" length="14.54" shape="200.59,-1.60,14.14 215.13,-1.60,14.14"/>
    </edge>
    <edge id=":C0_7" function="internal">
        <lane id=":C0_7_0" index="0" speed="8.79" length="5.63" shape="200.59,-1.60,14.14 204.16,-1.03,14.14 205.88,0.00,14.14"/>
    </edge>
    <edge id=":C0_8" function="internal">
        <lane id=":C0_8_0" index="0" speed="3.65" length="2.34" shape="200.59,-1.60,14.14 201.79,-0.80,14.14 202.19,0.00,14.14"/>
    </edge>
    <edge id=":C0_10" function="internal">
        <lane id=":C0_10_0" index="0" speed="8.79" length="8.97" shape="205.88,0.00,14.14 206.99,0.66,14.14 209.06,3.49,14.14 210.39,7.44,14.14"/>
    </edge>
    <edge id=":C0_11" function="internal">
        <lane id=":C0_11_0" index="0" speed="3.65" length="2.34" shape="202.19,0.00,14.14 201.79,0.80,14.14 200.59,1.60,14.14"/>
    </edge>
    <edge id=":C1_0" function="internal">
        <lane id=":C1_0_0" index="0" speed="13.89" length="14.54" shape="234.92,101.60,18.69 220.38,101.60,18.69"/>
    </edge>
    <edge id=":C1_1" function="internal">
        <lane id=":C1_1_0" index="0" speed="8.79" length="5.63" shape="234.92,101.60,18.69 231.35,101.03,18.69 229.62,100.00,18.69"/>
    </edge>
    <edge id=":C1_2" function="internal">
        <lane id=":C1_2_0" index="0" speed="3.65" length="2.34" shape="234.92,101.60,18.69 233.72,100.80,18.69 233.32,100.00,18.69"/>
    </edge>
    <edge id=":C1_9" function="internal">
        <lane id=":C1_9_0" index="0" speed="8.79" length="8.97" shape="229.62,100.00,18.69 228.52,99.34,18.69 226.45,96.51,18.69 225.12,92.56,18.69"/>
    </edge>
    <edge id=":C1_10" function="internal">
        <lane id=":C1_10_0" index="0" speed="3.65" length="2.34" shape="233.32,100.00,18.69 233.72,99.20,18.69 234.92,98.40,18.69"/>
    </edge>
    <edge id=":C1_3" function="internal">
        <lane id=":C1_3_0" index="0" speed="7.44" length="10.18" shape="228.25,91.89,18.69 229.18,94.74,18.69 230.60,96.77,18.69 232.52,97.99,18.69 234.92,98.40,18.69"/>
    </edge>
    <edge id=":C1_4" function="internal">
        <lane id=":C1_4_0" index="0" speed="7.68" length="15.05" shape="228.25,91.89,18.69 228.52,96.14,18.69 227.31,99.17,18.69 224.59,100.99,18.69 220.38,101.60,18.69"/>
    </edge>
    <edge id=":C1_5" function="internal">
        <lane id=":C1_5_0" index="0" speed="3.65" length="4.67" shape="228.25,91.89,18.69 227.71,93.23,18.69 227.01,93.79,18.69 226.15,93.56,18.69 225.12,92.56,18.69"/>
    </edge>
    <edge id=":C1_6" function="internal">
        <lane id=":C1_6_0" index="0" speed="6.10" length="9.06" shape="220.38,98.40,18.69 222.91,98.03,18.69 224.55,96.94,18.69 225.28,95.11,18.69 225.12,92.56,18.69"/>
    </edge>
    <edge id=":C1_7" function="internal">
        <lane id=":C1_7_0" index="0" speed="13.89" length="14.54" shape="220.38,98.40,18.69 234.92,98.40,18.69"/>
    </edge>
    <edge id=":C1_8" function="internal">
        <lane id=":C1_8_0" index="0" speed="3.65" length="2.34" shape="220.38,98.40,18.69 221.58,99.20,18.69 221.98,100.00,18.69"/>
    </edge>
    <edge id=":C1_11" function="internal">
        <lane id=":C1_11_0" index="0" speed="3.65" length="2.34" shape="221.98,100.00,18.69 221.58,100.80,18.69 220.38,101.60,18.69"/>
    </edge>
    <edge id=":D0_0" function="internal">
        <lane id=":D0_0_0" index="0" speed="7.20" length="9.90" shape="299.49,7.91,-40.01 298.71,5.15,-40.01 297.38,3.18,-40.01 295.52,1.99,-40.01 293.11,1.60,-40.01"/>
    </edge>
    <edge id=":D0_1" function="internal">
        <lane id=":D0_1_0" index="0" speed="7.74" length="14.84" shape="299.49,7.91,-40.01 299.42,3.75,-40.01 300.75,0.78,-40.01 303.47,-1.01,-40.01 307.59,-1.60,-40.01"/>
    </edge>
    <edge id=":D0_2" function="internal">
        <lane id=":D0_2_0" index="0" speed="3.65" length="4.67" shape="299.49,7.91,-40.01 300.09,6.60,-40.01 300.81,6.08,-40.01 301.67,6.35,-40.01 302.65,7.40,-40.01"/>
    </edge>
    <edge id=":D0_3" function="internal">
        <lane id=":D0_3_0" index="0" speed="6.19" length="9.05" shape="307.59,1.60,-40.01 305.08,1.96,-40.01 303.42,3.05,-40.01 302.61,4.86,-40.01 302.65,7.40,-40.01"/>
    </edge>
    <edge id=":D0_4" function="internal">
        <lane id=":D0_4_0" index="0" speed="13.89" length="14.48" shape="307.59,1.60,-40.01 293.11,1.60,-40.01"/>
    </edge>
    <edge id=":D0_5" function="internal">
        <lane id=":D0_5_0" index="0" speed="3.65" length="2.34" shape="307.59,1.60,-40.01 306.39,0.80,-40.01 305.99,0.00,-40.01"/>
    </edge>
    <edge id=":D0_9" function="internal">
        <lane id=":D0_9_0" index="0" speed="3.65" length="2.34" shape="305.99,0.00,-40.01 306.39,-0.80,-40.01 307.59,-1.60,-40.01"/>
    </edge>
    <edge id=":D0_6" function="internal">
        <lane id=":D0_6_0" index="0" speed="13.89" length="14.48" shape="293.11,-1.60,-40.01 307.59,-1.60,-40.01"/>
    </edge>
    <edge id=":D0_7" function="internal">
        <lane id=":D0_7_0" index="0" speed="8.59" length="5.68" shape="293.11,-1.60,-40.01 296.74,-1.04,-40.01 298.46,0.00,-40.01"/>
    </edge>
    <edge id=":D0_8" function="internal">
        <lane id=":D0_8_0" index="0" speed="3.65" length="2.34" shape="293.11,-1.60,-40.01 294.31,-0.80,-40.01 294.71,0.00,-40.01"/>
    </edge>
    <edge id=":D0_10" function="internal">
        <lane id=":D0_10_0" index="0" speed="8.59" length="8.80" shape="298.46,0.00,-40.01 299.54,0.65,-40.01 301.51,3.46,-40.01 302.65,7.40,-40.01"/>
    </edge>
    <edge id=":D0_11" function="internal">
        <lane id=":D0_11_0" index="0" speed="3.65" length="2.34" shape="294.71,0.00,-40.01 294.31,0.80,-40.01 293.11,1.60,-40.01"/>
    </edge>
    <edge id=":D1_0" function="internal">
        <lane id=":D1_0_0" index="0" speed="13.89" length="14.48" shape="322.73,101.60,25.18 308.24,101.60,25.18"/>
    </edge>
    <edge id=":D1_1" function="internal">
        <lane id=":D1_1_0" index="0" speed="8.59" length="5.68" shape="322.73,101.60,25.18 319.10,101.04,25.18 317.38,100.00,25.18"/>
    </edge>
    <edge id=":D1_2" function="internal">
        <lane id=":D1_2_0" index="0" speed="3.65" length="2.34" shape="322.73,101.60,25.18 321.53,100.80,25.18 321.13,100.00,25.18"/>
    </edge>
    <edge id=":D1_9" function="internal">
        <lane id=":D1_9_0" index="0" speed="8.59" length="8.80" shape="317.38,100.00,25.18 316.30,99.35,25.18 314.33,96.54,25.18 313.18,92.60,25.18"/>
    </edge>
    <edge id=":D1_10" function="internal">
        <lane id=":D1_10_0" index="0" speed="3.65" length="2.34" shape="321.13,100.00,25.18 321.53,99.20,25.18 322.73,98.40,25.18"/>
    </edge>
    <edge id=":D1_3" function="internal">
        <lane id=":D1_3_0" index="0" speed="7.20" length="9.90" shape="316.34,92.09,25.18 317.13,94.85,25.18 318.45,96.82,25.18 320.32,98.01,25.18 322.73,98.40,25.18"/>
    </edge>
    <edge id=":D1_4" function="internal">
        <lane id=":D1_4_0" index="0" speed="7.74" length="14.84" shape="316.34,92.09,25.18 316.41,96.25,25.18 315.09,99.22,25.18 312.36,101.01,25.18 308.24,101.60,25.18"/>
    </edge>
    <edge id=":D1_5" function="internal">
        <lane id=":D1_5_0" index="0" speed="3.65" length="4.67" shape="316.34,92.09,25.18 315.75,93.40,25.18 315.02,93.92,25.18 314.17,93.65,25.18 313.18,92.60,25.18"/>
    </edge>
    <edge id=":D1_6" function="internal">
        <lane id=":D1_6_0" index="0" speed="6.19" length="9.05" shape="308.24,98.40,25.18 310.76,98.04,25.18 312.42,96.95,25.18 313.23,95.14,25.18 313.18,92.60,25.18"/>
    </edge>
    <edge id=":D1_7" function="internal">
        <lane id=":D1_7_0" index="0" speed="13.89" length="14.48" shape="308.24,98.40,25.18 322.73,98.40,25.18"/>
    </edge>
    <edge id=":D1_8" function="internal">
        <lane id=":D1_8_0" index="0" speed="3.65" length="2.34" shape="308.24,98.40,25.18 309.44,99.20,25.18 309.84,100.00,25.18"/>
    </edge>
    <edge id=":D1_11" function="internal">
        <lane id=":D1_11_0" index="0" speed="3.65" length="2.34" shape="309.84,100.00,25.18 309.44,100.80,25.18 308.24,101.60,25.18"/>
    </edge>
    <edge id=":E0_0" function="internal">
        <lane id=":E0_0_0" index="0" speed="7.40" length="10.14" shape="397.37,8.08,35.43 396.46,5.24,35.43 395.05,3.22,35.43 393.15,2.00,35.43 390.74,1.60,35.43"/>
    </edge>
    <edge id=":E0_1" function="internal">
        <lane id=":E0_1_0" index="0" speed="7.69" length="15.01" shape="397.37,8.08,35.43 397.13,3.84,35.43 398.36,0.82,35.43 401.08,-1.00,35.43 405.28,-1.60,35.43"/>
    </edge>
    <edge id=":E0_2" function="internal">
        <lane id=":E0_2_0" index="0" speed="3.65" length="4.67" shape="397.37,8.08,35.43 397.91,6.74,35.43 398.62,6.19,35.43 399.48,6.42,35.43 400.50,7.44,35.43"/>
    </edge>
    <edge id=":E0_3" function="internal">
        <lane id=":E0_3_0" index="0" speed="6.12" length="9.06" shape="405.28,1.60,35.43 402.74,1.96,35.43 401.10,3.06,35.43 400.36,4.88,35.43 400.50,7.44,35.43"/>
    </edge>
    <edge id=":E0_4" function="internal">
        <lane id=":E0_4_0" index="0" speed="13.89" length="14.53" shape="405.28,1.60,35.43 390.74,1.60,35.43"/>
    </edge>
    <edge id=":E0_5" function="internal">
        <lane id=":E0_5_0" index="0" speed="3.65" length="2.34" shape="405.28,1.60,35.43 404.08,0.80,35.43 403.68,0.00,35.43"/>
    </edge>
    <edge id=":E0_9" function="internal">
        <lane id=":E0_9_0" index="0" speed="3.65" length="2.34" shape="403.68,0.00,35.43 404.08,-0.80,35.43 405.28,-1.60,35.43"/>
    </edge>
    <edge id=":E0_6" function="internal">
        <lane id=":E0_6_0" index="0" speed="13.89" length="14.53" shape="390.74,-1.60,35.43 405.28,-1.60,35.43"/>
    </edge>
    <edge id=":E0_7" function="internal">
        <lane id=":E0_7_0" index="0" speed="8.76" length="5.63" shape="390.74,-1.60,35.43 394.33,-1.04,35.43 396.05,-0.00,35.43"/>
    </edge>
    <edge id=":E0_8" function="internal">
        <lane id=":E0_8_0" index="0" speed="3.65" length="2.34" shape="390.74,-1.60,35.43 391.94,-0.80,35.43 392.34,0.00,35.43"/>
    </edge>
    <edge id=":E0_10" function="internal">
        <lane id=":E0_10_0" index="0" speed="8.76" length="8.94" shape="396.05,-0.00,35.43 397.15,0.66,35.43 399.21,3.48,35.43 400.50,7.44,35.43"/>
    </edge>
    <edge id=":E0_11" function="internal">
        <lane id=":E0_11_0" index="0" speed="3.65" length="2.34" shape="392.34,0.00,35.43 391.94,0.80,35.43 390.74,1.60,35.43"/>
    </edge>
    <edge id=":E1_0" function="internal">
        <lane id=":E1_0_0" index="0" speed="13.89" length="14.53" shape="424.29,101.60,-28.91 409.76,101.60,-28.91"/>
    </edge>
    <edge id=":E1_1" function="internal">
        <lane id=":E1_1_0" index="0" speed="8.76" length="5.63" shape="424.29,101.60,-28.91 420.71,101.04,-28.91 418.99,100.00,-28.91"/>
    </edge>
    <edge id=":E1_2" function="internal">
        <lane id=":E1_2_0" index="0" speed="3.65" length="2.34" shape="424.29,101.60,-28.91 423.09,100.80,-28.91 422.69,100.00,-28.91"/>
    </edge>
    <edge id=":E1_9" function="internal">
        <lane id=":E1_9_0" index="0" speed="8.76" length="8.94" shape="418.99,100.00,-28.91 417.89,99.34,-28.91 415.83,96.52,-28.91 414.53,92.56,-28.91"/>
    </edge>
    <edge id=":E1_10" function="internal">
        <lane id=":E1_10_0" index="0" speed="3.65" length="2.34" shape="422.69,100.00,-28.91 423.09,99.20,-28.91 424.29,98.40,-28.91"/>
    </edge>
    <edge id=":E1_3" function="internal">
        <lane id=":E1_3_0" index="0" speed="7.40" length="10.14" shape="417.67,91.92,-28.91 418.58,94.76,-28.91 419.98,96.78,-28.91 421.89,98.00,-28.91 424.29,98.40,-28.91"/>
    </edge>
    <edge id=":E1_4" function="internal">
        <lane id=":E1_4_0" index="0" speed="7.69" length="15.01" shape="417.67,91.92,-28.91 417.91,96.16,-28.91 416.68,99.18,-28.91 413.96,101.00,-28.91 409.76,101.60,-28.91"/>
    </edge>
    <edge id=":E1_5" function="internal">
        <lane id=":E1_5_0" index="0" speed="3.65" length="4.67" shape="417.67,91.92,-28.91 417.12,93.26,-28.91 416.42,93.81,-28.91 415.56,93.58,-28.91 414.53,92.56,-28.91"/>
    </edge>
    <edge id=":E1_6" function="internal">
        <lane id=":E1_6_0" index="0" speed="6.12" length="9.06" shape="409.76,98.40,-28.91 412.29,98.04,-28.91 413.93,96.94,-28.91 414.68,95.12,-28.91 414.53,92.56,-28.91"/>
    </edge>
    <edge id=":E1_7" function="internal">
        <lane id=":E1_7_0" index="0" speed="13.89" length="14.53" shape="409.76,98.40,-28.91 424.29,98.40,-28.91"/>
    </edge>
    <edge id=":E1_8" function="internal">
        <lane id=":E1_8_0" index="0" speed="3.65" length="2.34" shape="409.76,98.40,-28.91 410.96,99.20,-28.91 411.36,100.00,-28.91"/>
    </edge>
    <edge id=":E1_11" function="internal">
        <lane id=":E1_11_0" index="0" speed="3.65" length="2.34" shape="411.36,100.00,-28.91 410.96,100.80,-28.91 409.76,101.60,-28.91"/>
    </edge>
    <edge id=":F0_0" function="internal">
        <lane id=":F0_0_0" index="0" speed="7.60" length="10.38" shape="494.53,8.23,-5.69 493.49,5.33,-5.69 492.00,3.26,-5.69 490.05,2.01,-5.69 487.65,1.60,-5.69"/>
    </edge>
    <edge id=":F0_1" function="internal">
        <lane id=":F0_1_0" index="0" speed="7.64" length="15.19" shape="494.53,8.23,-5.69 494.11,3.93,-5.69 495.26,0.86,-5.69 497.97,-0.99,-5.69 502.24,-1.60,-5.69"/>
    </edge>
    <edge id=":F0_2" function="internal">
        <lane id=":F0_2_0" index="0" speed="3.65" length="4.67" shape="494.53,8.23,-5.69 495.02,6.87,-5.69 495.70,6.29,-5.69 496.58,6.49,-5.69 497.64,7.47,-5.69"/>
    </edge>
    <edge id=":F0_3" function="internal">
        <lane id=":F0_3_0" index="0" speed="6.05" length="9.07" shape="502.24,1.60,-5.69 499.69,1.97,-5.69 498.07,3.07,-5.69 497.39,4.90,-5.69 497.64,7.47,-5.69"/>
    </edge>
    <edge id=":F0_4" function="internal">
        <lane id=":F0_4_0" index="0" speed="13.89" length="14.59" shape="502.24,1.60,-5.69 487.65,1.60,-5.69"/>
    </edge>
    <edge id=":F0_5" function="internal">
        <lane id=":F0_5_0" index="0" speed="3.65" length="2.34" shape="502.24,1.60,-5.69 501.04,0.80,-5.69 500.64,0.00,-5.69"/>
    </edge>
    <edge id=":F0_9" function="internal">
        <lane id=":F0_9_0" index="0" speed="3.65" length="2.34" shape="500.64,0.00,-5.69 501.04,-0.80,-5.69 502.24,-1.60,-5.69"/>
    </edge>
    <edge id=":F0_6" function="internal">
        <lane id=":F0_6_0" index="0" speed="13.89" length="14.59" shape="487.65,-1.60,-5.69 502.24,-1.60,-5.69"/>
    </edge>
    <edge id=":F0_7" function="internal">
        <lane id=":F0_7_0" index="0" speed="8.94" length="5.60" shape="487.65,-1.60,-5.69 491.19,-1.03,-5.69 492.92,-0.00,-5.69"/>
    </edge>
    <edge id=":F0_8" function="internal">
        <lane id=":F0_8_0" index="0" speed="3.65" length="2.34" shape="487.65,-1.60,-5.69 488.85,-0.80,-5.69 489.25,0.00,-5.69"/>
    </edge>
    <edge id=":F0_10" function="internal">
        <lane id=":F0_10_0" index="0" speed="8.94" length="9.08" shape="492.92,-0.00,-5.69 494.03,0.67,-5.69 496.18,3.50,-5.69 497.64,7.47,-5.69"/>
    </edge>
    <edge id=":F0_11" function="internal">
        <lane id=":F0_11_0" index="0" speed="3.65" length="2.34" shape="489.25,0.00,-5.69 488.85,0.80,-5.69 487.65,1.60,-5.69"/>
    </edge>
    <edge id=":F1_0" function="internal">
        <lane id=":F1_0_0" index="0" speed="13.89" length="18.51" shape="529.06,101.60,10.74 510.54,101.60,10.74"/>
    </edge>
    <edge id=":F1_1" function="internal">
        <lane id=":F1_1_0" index="0" speed="9.86" length="7.96" shape="529.06,101.60,10.74 523.80,101.03,10.74 521.33,100.00,10.74"/>
    </edge>
    <edge id=":F1_2" function="internal">
        <lane id=":F1_2_0" index="0" speed="3.65" length="2.34" shape="529.06,101.60,10.74 527.86,100.80,10.74 527.46,100.00,10.74"/>
    </edge>
    <edge id=":F1_9" function="internal">
        <lane id=":F1_9_0" index="0" speed="9.86" length="10.09" shape="521.33,100.00,10.74 519.73,99.33,10.74 516.85,96.50,10.74 515.15,92.53,10.74"/>
    </edge>
    <edge id=":F1_10" function="internal">
        <lane id=":F1_10_0" index="0" speed="3.65" length="2.34" shape="527.46,100.00,10.74 527.86,99.20,10.74 529.06,98.40,10.74"/>
    </edge>
    <edge id=":F1_3" function="internal">
        <lane id=":F1_3_0" index="0" speed="8.67" length="13.76" shape="518.26,91.77,10.74 519.54,94.67,10.74 521.77,96.74,10.74 524.94,97.99,10.74 529.06,98.40,10.74"/>
    </edge>
    <edge id=":F1_4" function="internal">
        <lane id=":F1_4_0" index="0" speed="7.64" length="15.19" shape="518.26,91.77,10.74 518.68,96.07,10.74 517.53,99.14,10.74 514.82,100.99,10.74 510.54,101.60,10.74"/>
    </edge>
    <edge id=":F1_5" function="internal">
        <lane id=":F1_5_0" index="0" speed="3.65" length="4.67" shape="518.26,91.77,10.74 517.76,93.13,10.74 517.08,93.71,10.74 516.21,93.51,10.74 515.15,92.53,10.74"/>
    </edge>
    <edge id=":F1_6" function="internal">
        <lane id=":F1_6_0" index="0" speed="6.05" length="9.07" shape="510.54,98.40,10.74 513.10,98.03,10.74 514.71,96.93,10.74 515.40,95.10,10.74 515.15,92.53,10.74"/>
    </edge>
    <edge id=":F1_7" function="internal">
        <lane id=":F1_7_0" index="0" speed="13.89" length="18.51" shape="510.54,98.40,10.74 529.06,98.40,10.74"/>
    </edge>
    <edge id=":F1_8" function="internal">
        <lane id=":F1_8_0" index="0" speed="3.65" length="2.34" shape="510.54,98.40,10.74 511.74,99.20,10.74 512.14,100.00,10.74"/>
    </edge>
    <edge id=":F1_11" function="internal">
        <lane id=":F1_11_0" index="0" speed="3.65" length="2.34" shape="512.14,100.00,10.74 511.74,100.80,10.74 510.54,101.60,10.74"/>
    </edge>
    <edge id=":G0_0" function="internal">
        <lane id=":G0_0_0" index="0" speed="6.86" length="9.49" shape="610.68,1.60,-19.39 608.26,1.97,-19.39 606.45,3.10,-19.39 605.26,4.97,-19.39 604.69,7.60,-19.39"/>
    </edge>
    <edge id=":G0_1" function="internal">
        <lane id=":G0_1_0" index="0" speed="13.89" length="14.42" shape="610.68,1.60,-19.39 596.26,1.60,-19.39"/>
    </edge>
    <edge id=":G0_2" function="internal">
        <lane id=":G0_2_0" index="0" speed="3.65" length="2.34" shape="610.68,1.60,-19.39 609.48,0.80,-19.39 609.08,0.00,-19.39"/>
    </edge>
    <edge id=":G0_9" function="internal">
        <lane id=":G0_9_0" index="0" speed="3.65" length="2.34" shape="609.08,0.00,-19.39 609.48,-0.80,-19.39 610.68,-1.60,-19.39"/>
    </edge>
    <edge id=":G0_3" function="internal">
        <lane id=":G0_3_0" index="0" speed="13.89" length="14.42" shape="596.26,-1.60,-19.39 610.68,-1.60,-19.39"/>
    </edge>
    <edge id=":G0_4" function="internal">
        <lane id=":G0_4_0" index="0" speed="7.85" length="5.95" shape="596.26,-1.60,-19.39 600.25,-1.03,-19.39 601.87,0.00,-19.39"/>
    </edge>
    <edge id=":G0_5" function="internal">
        <lane id=":G0_5_0" index="0" speed="3.65" length="2.34" shape="596.26,-1.60,-19.39 597.46,-0.80,-19.39 597.86,0.00,-19.39"/>
    </edge>
    <edge id=":G0_10" function="internal">
        <lane id=":G0_10_0" index="0" speed="7.85" length="8.58" shape="601.87,0.00,-19.39 602.98,0.70,-19.39 604.47,3.57,-19.39 604.69,7.60,-19.39"/>
    </edge>
    <edge id=":G0_11" function="internal">
        <lane id=":G0_11_0" index="0" speed="3.65" length="2.34" shape="597.86,0.00,-19.39 597.46,0.80,-19.39 596.26,1.60,-19.39"/>
    </edge>
    <edge id=":G0_6" function="internal">
        <lane id=":G0_6_0" index="0" speed="6.33" length="9.04" shape="601.51,7.32,-19.39 601.36,4.82,-19.39 600.44,3.03,-19.39 598.74,1.96,-19.39 596.26,1.60,-19.39"/>
    </edge>
    <edge id=":G0_7" function="internal">
        <lane id=":G0_7_0" index="0" speed="8.30" length="14.33" shape="601.51,7.32,-19.39 602.37,3.42,-19.39 604.19,0.63,-19.39 606.96,-1.04,-19.39 610.68,-1.60,-19.39"/>
    </edge>
    <edge id=":G0_8" function="internal">
        <lane id=":G0_8_0" index="0" speed="3.65" length="4.67" shape="601.51,7.32,-19.39 602.41,6.20,-19.39 603.24,5.87,-19.39 604.00,6.33,-19.39 604.69,7.60,-19.39"/>
    </edge>
    <edge id=":G1_0" function="internal">
        <lane id=":G1_0_0" index="0" speed="13.89" length="14.42" shape="602.57,101.60,-34.55 588.15,101.60,-34.55"/>
    </edge>
    <edge id=":G1_1" function="internal">
        <lane id=":G1_1_0" index="0" speed="7.85" length="5.95" shape="602.57,101.60,-34.55 598.58,101.03,-34.55 596.96,100.00,-34.55"/>
    </edge>
    <edge id=":G1_2" function="internal">
        <lane id=":G1_2_0" index="0" speed="3.65" length="2.34" shape="602.57,101.60,-34.55 601.37,100.80,-34.55 600.97,100.00,-34.55"/>
    </edge>
    <edge id=":G1_9" function="internal">
        <lane id=":G1_9_0" index="0" speed="7.85" length="8.58" shape="596.96,100.00,-34.55 595.85,99.30,-34.55 594.37,96.43,-34.55 594.14,92.40,-34.55"/>
    </edge>
    <edge id=":G1_10" function="internal">
        <lane id=":G1_10_0" index="0" speed="3.65" length="2.34" shape="600.97,100.00,-34.55 601.37,99.20,-34.55 602.57,98.40,-34.55"/>
    </edge>
    <edge id=":G1_3" function="internal">
        <lane id=":G1_3_0" index="0" speed="6.33" length="9.04" shape="597.33,92.68,-34.55 597.47,95.18,-34.55 598.39,96.97,-34.55 600.09,98.04,-34.55 602.57,98.40,-34.55"/>
    </edge>
    <edge id=":G1_4" function="internal">
        <lane id=":G1_4_0" index="0" speed="8.30" length="14.33" shape="597.33,92.68,-34.55 596.46,96.58,-34.55 594.65,99.37,-34.55 591.87,101.04,-34.55 588.15,101.60,-34.55"/>
    </edge>
    <edge id=":G1_5" function="internal">
        <lane id=":G1_5_0" index="0" speed="3.65" length="4.67" shape="597.33,92.68,-34.55 596.43,93.80,-34.55 595.59,94.13,-34.55 594.83,93.67,-34.55 594.14,92.40,-34.55"/>
    </edge>
    <edge id=":G1_6" function="internal">
        <lane id=":G1_6_0" index="0" speed="6.86" length="9.49" shape="588.15,98.40,-34.55 590.57,98.03,-34.55 592.38,96.90,-34.55 593.57,95.03,-34.55 594.14,92.40,-34.55"/>
    </edge>
    <edge id=":G1_7" function="internal">
        <lane id=":G1_7_0" index="0" speed="13.89" length="14.42" shape="588.15,98.40,-34.55 602.57,98.40,-34.55"/>
    </edge>
    <edge id=":G1_8" function="internal">