<?xml version="1.0" encoding="UTF-8"?>

<!-- generated on 07/22/20 22:23:41 by Eclipse SUMO netgenerate Version 1.5.0
<configuration xmlns:xsi="http://www.w3.org/2001/XMLSchema-instance" xsi:noNamespaceSchemaLocation="http://sumo.dlr.de/xsd/netgenerateConfiguration.xsd">

    <grid_network>
        <grid value="true"/>
        <grid.x-number value="20"/>
        <grid.y-number value="2"/>
    </grid_network>

    <output>
        <output-file value="6.net.xml"/>
    </output>

    <processing>
        <perturb-x value="23"/>
        <perturb-z value="100"/>
    </processing>

    <random_number>
        <seed value="8351704"/>
    </random_number>

</configuration>
-->

<net version="1.3" junctionCornerDetail="5" limitTurnSpeed="5.50" xmlns:xsi="http://www.w3.org/2001/XMLSchema-instance" xsi:noNamespaceSchemaLocation="http://sumo.dlr.de/xsd/net_file.xsd">

    <location netOffset="15.67,0.00" convBoundary="0.00,0.00,1911.99,100.00" origBoundary="-15.67,0.00,1896.31,100.00" projParameter="!"/>

    <edge id=":A0_0" function="internal">
        <lane id=":A0_0_0" index="0" speed="3.92" length="3.93" shape="20.77,1.60,-2.35 20.17,1.68,-3.21 19.71,1.93,-3.95 19.39,2.34,-4.70 19.20,2.92,-5.56"/>
    </edge>
    <edge id=":A0_1" function="internal">
        <lane id=":A0_1_0" index="0" speed="6.11" length="7.48" shape="16.05,2.35,-5.56 16.61,0.62,-4.71 17.59,-0.61,-3.97 18.98,-1.35,-3.24 20.77,-1.60,-2.39"/>
    </edge>
    <edge id=":A1_0" function="internal">
        <lane id=":A1_0_0" index="0" speed="6.08" length="14.58" shape="3.83,101.60,-90.98 1.38,101.25,-94.26 -0.22,100.19,-96.80 -0.98,98.42,-99.34 -0.89,95.95,-102.62"/>
    </edge>
    <edge id=":A1_1" function="internal">
        <lane id=":A1_1_0" index="0" speed="3.90" length="10.86" shape="2.26,96.52,-102.62 2.23,97.34,-99.67 2.48,97.93,-97.39 3.01,98.28,-95.11 3.83,98.40,-92.16"/>
    </edge>
    <edge id=":B0_0" function="internal">
        <lane id=":B0_0_0" index="0" speed="7.98" length="10.80" shape="121.51,1.60,13.34 119.11,2.03,13.34 117.09,3.32,13.34 115.44,5.46,13.34 114.16,8.46,13.34"/>
    </edge>
    <edge id=":B0_1" function="internal">
        <lane id=":B0_1_0" index="0" speed="13.89" length="14.71" shape="121.51,1.60,13.34 106.79,1.60,13.34"/>
    </edge>
    <edge id=":B0_2" function="internal">
        <lane id=":B0_2_0" index="0" speed="3.65" length="2.34" shape="121.51,1.60,13.34 120.31,0.80,13.34 119.91,0.00,13.34"/>
    </edge>
    <edge id=":B0_9" function="internal">
        <lane id=":B0_9_0" index="0" speed="3.65" length="2.34" shape="119.91,0.00,13.34 120.31,-0.80,13.34 121.51,-1.60,13.34"/>
    </edge>
    <edge id=":B0_3" function="internal">
        <lane id=":B0_3_0" index="0" speed="13.89" length="14.71" shape="106.79,-1.60,13.34 121.51,-1.60,13.34"/>
    </edge>
    <edge id=":B0_4" function="internal">
        <lane id=":B0_4_0" index="0" speed="7.56" length="6.16" shape="106.79,-1.60,13.34 111.21,-0.97,13.34 112.60,-0.00,13.34"/>
    </edge>
    <edge id=":B0_5" function="internal">
        <lane id=":B0_5_0" index="0" speed="3.65" length="2.34" shape="106.79,-1.60,13.34 107.99,-0.80,13.34 108.39,0.00,13.34"/>
    </edge>
    <edge id=":B0_10" function="internal">
        <lane id=":B0_10_0" index="0" speed="7.56" length="9.36" shape="112.60,-0.00,13.34 113.91,0.92,13.34 114.90,4.06,13.34 114.16,8.46,13.34"/>
    </edge>
    <edge id=":B0_11" function="internal">
        <lane id=":B0_11_0" index="0" speed="3.65" length="2.34" shape="108.39,0.00,13.34 107.99,0.80,13.34 106.79,1.60,13.34"/>
    </edge>
    <edge id=":B0_6" function="internal">
        <lane id=":B0_6_0" index="0" speed="5.95" length="9.09" shape="111.11,7.50,13.34 111.54,4.92,13.34 110.97,3.07,13.34 109.38,1.97,13.34 106.79,1.60,13.34"/>
    </edge>
    <edge id=":B0_7" function="internal">
        <lane id=":B0_7_0" index="0" speed="9.27" length="14.87" shape="111.11,7.50,13.34 112.84,3.52,13.34 115.15,0.67,13.34 118.04,-1.03,13.34 121.51,-1.60,13.34"/>
    </edge>
    <edge id=":B0_8" function="internal">
        <lane id=":B0_8_0" index="0" speed="3.65" length="4.67" shape="111.11,7.50,13.34 112.24,6.59,13.34 113.12,6.45,13.34 113.76,7.08,13.34 114.16,8.46,13.34"/>
    </edge>
    <edge id=":B1_0" function="internal">
        <lane id=":B1_0_0" index="0" speed="13.89" length="14.71" shape="91.86,101.60,206.44 77.15,101.60,206.44"/>
    </edge>
    <edge id=":B1_1" function="internal">
        <lane id=":B1_1_0" index="0" speed="7.56" length="6.16" shape="91.86,101.60,206.44 87.44,100.97,206.44 86.05,100.00,206.44"/>
    </edge>
    <edge id=":B1_2" function="internal">
        <lane id=":B1_2_0" index="0" speed="3.65" length="2.34" shape="91.86,101.60,206.44 90.66,100.80,206.44 90.26,100.00,206.44"/>
    </edge>
    <edge id=":B1_9" function="internal">
        <lane id=":B1_9_0" index="0" speed="7.56" length="9.36" shape="86.05,100.00,206.44 84.74,99.08,206.44 83.76,95.94,206.44 84.49,91.54,206.44"/>
    </edge>
    <edge id=":B1_10" function="internal">
        <lane id=":B1_10_0" index="0" speed="3.65" length="2.34" shape="90.26,100.00,206.44 90.66,99.20,206.44 91.86,98.40,206.44"/>
    </edge>
    <edge id=":B1_3" function="internal">
        <lane id=":B1_3_0" index="0" speed="5.95" length="9.09" shape="87.55,92.50,206.44 87.12,95.08,206.44 87.69,96.93,206.44 89.27,98.03,206.44 91.86,98.40,206.44"/>
    </edge>
    <edge id=":B1_4" function="internal">
        <lane id=":B1_4_0" index="0" speed="9.27" length="14.87" shape="87.55,92.50,206.44 85.82,96.48,206.44 83.51,99.33,206.44 80.62,101.03,206.44 77.15,101.60,206.44"/>
    </edge>
    <edge id=":B1_5" function="internal">
        <lane id=":B1_5_0" index="0" speed="3.65" length="4.67" shape="87.55,92.50,206.44 86.42,93.41,206.44 85.54,93.55,206.44 84.90,92.92,206.44 84.49,91.54,206.44"/>
    </edge>
    <edge id=":B1_6" function="internal">
        <lane id=":B1_6_0" index="0" speed="7.98" length="10.80" shape="77.15,98.40,206.44 79.55,97.97,206.44 81.57,96.68,206.44 83.22,94.54,206.44 84.49,91.54,206.44"/>
    </edge>
    <edge id=":B1_7" function="internal">
        <lane id=":B1_7_0" index="0" speed="13.89" length="14.71" shape="77.15,98.40,206.44 91.86,98.40,206.44"/>
    </edge>
    <edge id=":B1_8" function="internal">
        <lane id=":B1_8_0" index="0" speed="3.65" length="2.34" shape="77.15,98.40,206.44 78.35,99.20,206.44 78.75,100.00,206.44"/>
    </edge>
    <edge id=":B1_11" function="internal">
        <lane id=":B1_11_0" index="0" speed="3.65" length="2.34" shape="78.75,100.00,206.44 78.35,100.80,206.44 77.15,101.60,206.44"/>
    </edge>
    <edge id=":C0_0" function="internal">
        <lane id=":C0_0_0" index="0" speed="8.96" length="11.83" shape="219.07,8.90,47.13 217.20,5.70,47.13 215.16,3.42,47.13 212.93,2.06,47.13 210.52,1.60,47.13"/>
    </edge>
    <edge id=":C0_1" function="internal">
        <lane id=":C0_1_0" index="0" speed="7.44" length="16.33" shape="219.07,8.90,47.13 217.57,4.30,47.13 218.16,1.02,47.13 220.85,-0.94,47.13 225.64,-1.60,47.13"/>
    </edge>
    <edge id=":C0_2" function="internal">
        <lane id=":C0_2_0" index="0" speed="3.65" length="4.67" shape="219.07,8.90,47.13 219.26,7.47,47.13 219.81,6.76,47.13 220.70,6.77,47.13 221.95,7.50,47.13"/>
    </edge>
    <edge id=":C0_3" function="internal">
        <lane id=":C0_3_0" index="0" speed="5.75" length="9.17" shape="225.64,1.60,47.13 222.95,1.97,47.13 221.44,3.07,47.13 221.10,4.92,47.13 221.95,7.50,47.13"/>
    </edge>
    <edge id=":C0_4" function="internal">
        <lane id=":C0_4_0" index="0" speed="13.89" length="15.12" shape="225.64,1.60,47.13 210.52,1.60,47.13"/>
    </edge>
    <edge id=":C0_5" function="internal">
        <lane id=":C0_5_0" index="0" speed="3.65" length="2.34" shape="225.64,1.60,47.13 224.44,0.80,47.13 224.04,0.00,47.13"/>
    </edge>
    <edge id=":C0_9" function="internal">
        <lane id=":C0_9_0" index="0" speed="3.65" length="2.34" shape="224.04,0.00,47.13 224.44,-0.80,47.13 225.64,-1.60,47.13"/>
    </edge>
    <edge id=":C0_6" function="internal">
        <lane id=":C0_6_0" index="0" speed="13.89" length="15.12" shape="210.52,-1.60,47.13 225.64,-1.60,47.13"/>
    </edge>
    <edge id=":C0_7" function="internal">
        <lane id=":C0_7_0" index="0" speed="10.17" length="5.48" shape="210.52,-1.60,47.13 213.86,-1.03,47.13 215.69,0.00,47.13"/>
    </edge>
    <edge id=":C0_8" function="internal">
        <lane id=":C0_8_0" index="0" speed="3.65" length="2.34" shape="210.52,-1.60,47.13 211.72,-0.80,47.13 212.12,0.00,47.13"/>
    </edge>
    <edge id=":C0_10" function="internal">
        <lane id=":C0_10_0" index="0" speed="10.17" length="9.92" shape="215.69,0.00,47.13 216.88,0.67,47.13 219.57,3.52,47.13 221.95,7.50,47.13"/>
    </edge>
    <edge id=":C0_11" function="internal">
        <lane id=":C0_11_0" index="0" speed="3.65" length="2.34" shape="212.12,0.00,47.13 211.72,0.80,47.13 210.52,1.60,47.13"/>
    </edge>
    <edge id=":C1_0" function="internal">
        <lane id=":C1_0_0" index="0" speed="13.89" length="15.12" shape="271.15,101.60,62.30 256.03,101.60,62.30"/>
    </edge>
    <edge id=":C1_1" function="internal">
        <lane id=":C1_1_0" index="0" speed="10.17" length="5.48" shape="271.15,101.60,62.30 267.81,101.03,62.30 265.99,100.00,62.30"/>
    </edge>
    <edge id=":C1_2" function="internal">
        <lane id=":C1_2_0" index="0" speed="3.65" length="2.34" shape="271.15,101.60,62.30 269.95,100.80,62.30 269.55,100.00,62.30"/>
    </edge>
    <edge id=":C1_9" function="internal">
        <lane id=":C1_9_0" index="0" speed="10.17" length="9.92" shape="265.99,100.00,62.30 264.79,99.33,62.30 262.10,96.48,62.30 259.72,92.50,62.30"/>
    </edge>
    <edge id=":C1_10" function="internal">
        <lane id=":C1_10_0" index="0" speed="3.65" length="2.34" shape="269.55,100.00,62.30 269.95,99.20,62.30 271.15,98.40,62.30"/>
    </edge>
    <edge id=":C1_3" function="internal">
        <lane id=":C1_3_0" index="0" speed="8.96" length="11.83" shape="262.60,91.10,62.30 264.47,94.30,62.30 266.51,96.58,62.30 268.74,97.94,62.30 271.15,98.40,62.30"/>
    </edge>
    <edge id=":C1_4" function="internal">
        <lane id=":C1_4_0" index="0" speed="7.44" length="16.33" shape="262.60,91.10,62.30 264.11,95.70,62.30 263.51,98.98,62.30 260.82,100.94,62.30 256.03,101.60,62.30"/>
    </edge>
    <edge id=":C1_5" function="internal">
        <lane id=":C1_5_0" index="0" speed="3.65" length="4.67" shape="262.60,91.10,62.30 262.41,92.53,62.30 261.86,93.24,62.30 260.97,93.23,62.30 259.72,92.50,62.30"/>
    </edge>
    <edge id=":C1_6" function="internal">
        <lane id=":C1_6_0" index="0" speed="5.75" length="9.17" shape="256.03,98.40,62.30 258.72,98.03,62.30 260.24,96.93,62.30 260.57,95.08,62.30 259.72,92.50,62.30"/>
    </edge>
    <edge id=":C1_7" function="internal">
        <lane id=":C1_7_0" index="0" speed="13.89" length="15.12" shape="256.03,98.40,62.30 271.15,98.40,62.30"/>
    </edge>
    <edge id=":C1_8" function="internal">
        <lane id=":C1_8_0" index="0" speed="3.65" length="2.34" shape="256.03,98.40,62.30 257.23,99.20,62.30 257.63,100.00,62.30"/>
    </edge>
    <edge id=":C1_11" function="internal">
        <lane id=":C1_11_0" index="0" speed="3.65" length="2.34" shape="257.63,100.00,62.30 257.23,100.80,62.30 256.03,101.60,62.30"/>
    </edge>
    <edge id=":D0_0" function="internal">
        <lane id=":D0_0_0" index="0" speed="8.29" length="11.13" shape="301.11,8.62,-133.36 299.65,5.55,-133.36 297.88,3.36,-133.36 295.79,2.04,-133.36 293.39,1.60,-133.36"/>
    </edge>
    <edge id=":D0_1" function="internal">
        <lane id=":D0_1_0" index="0" speed="7.52" length="15.77" shape="301.11,8.62,-133.36 300.13,4.15,-133.36 300.99,0.96,-133.36 303.68,-0.96,-133.36 308.22,-1.60,-133.36"/>
    </edge>
    <edge id=":D0_2" function="internal">
        <lane id=":D0_2_0" index="0" speed="3.65" length="4.67" shape="301.11,8.62,-133.36 301.44,7.22,-133.36 302.05,6.56,-133.36 302.94,6.66,-133.36 304.11,7.51,-133.36"/>
    </edge>
    <edge id=":D0_3" function="internal">
        <lane id=":D0_3_0" index="0" speed="5.87" length="9.11" shape="308.22,1.60,-133.36 305.60,1.97,-133.36 304.04,3.08,-133.36 303.54,4.92,-133.36 304.11,7.51,-133.36"/>
    </edge>
    <edge id=":D0_4" function="internal">
        <lane id=":D0_4_0" index="0" speed="13.89" length="14.83" shape="308.22,1.60,-133.36 293.39,1.60,-133.36"/>
    </edge>
    <edge id=":D0_5" function="internal">
        <lane id=":D0_5_0" index="0" speed="3.65" length="2.34" shape="308.22,1.60,-133.36 307.02,0.80,-133.36 306.62,0.00,-133.36"/>
    </edge>
    <edge id=":D0_9" function="internal">
        <lane id=":D0_9_0" index="0" speed="3.65" length="2.34" shape="306.62,0.00,-133.36 307.02,-0.80,-133.36 308.22,-1.60,-133.36"/>
    </edge>
    <edge id=":D0_6" function="internal">
        <lane id=":D0_6_0" index="0" speed="13.89" length="14.83" shape="293.39,-1.60,-133.36 308.22,-1.60,-133.36"/>
    </edge>
    <edge id=":D0_7" function="internal">
        <lane id=":D0_7_0" index="0" speed="9.55" length="5.51" shape="293.39,-1.60,-133.36 296.81,-1.03,-133.36 298.58,0.00,-133.36"/>
    </edge>
    <edge id=":D0_8" function="internal">
        <lane id=":D0_8_0" index="0" speed="3.65" length="2.34" shape="293.39,-1.60,-133.36 294.59,-0.80,-133.36 294.99,0.00,-133.36"/>
    </edge>
    <edge id=":D0_10" function="internal">
        <lane id=":D0_10_0" index="0" speed="9.55" length="9.52" shape="298.58,0.00,-133.36 299.74,0.68,-133.36 302.17,3.52,-133.36 304.11,7.51,-133.36"/>
    </edge>
    <edge id=":D0_11" function="internal">
        <lane id=":D0_11_0" index="0" speed="3.65" length="2.34" shape="294.99,0.00,-133.36 294.59,0.80,-133.36 293.39,1.60,-133.36"/>
    </edge>
    <edge id=":D1_0" function="internal">
        <lane id=":D1_0_0" index="0" speed="13.89" length="14.83" shape="343.03,101.60,83.92 328.20,101.60,83.92"/>
    </edge>
    <edge id=":D1_1" function="internal">
        <lane id=":D1_1_0" index="0" speed="9.55" length="5.51" shape="343.03,101.60,83.92 339.61,101.03,83.92 337.84,100.00,83.92"/>
    </edge>
    <edge id=":D1_2" function="internal">
        <lane id=":D1_2_0" index="0" speed="3.65" length="2.34" shape="343.03,101.60,83.92 341.83,100.80,83.92 341.43,100.00,83.92"/>
    </edge>
    <edge id=":D1_9" function="internal">
        <lane id=":D1_9_0" index="0" speed="9.55" length="9.52" shape="337.84,100.00,83.92 336.68,99.32,83.92 334.25,96.48,83.92 332.31,92.49,83.92"/>
    </edge>
    <edge id=":D1_10" function="internal">
        <lane id=":D1_10_0" index="0" speed="3.65" length="2.34" shape="341.43,100.00,83.92 341.83,99.20,83.92 343.03,98.40,83.92"/>
    </edge>
    <edge id=":D1_3" function="internal">
        <lane id=":D1_3_0" index="0" speed="8.29" length="11.13" shape="335.31,91.38,83.92 336.77,94.45,83.92 338.54,96.64,83.92 340.63,97.96,83.92 343.03,98.40,83.92"/>
    </edge>
    <edge id=":D1_4" function="internal">
        <lane id=":D1_4_0" index="0" speed="7.52" length="15.77" shape="335.31,91.38,83.92 336.29,95.85,83.92 335.43,99.04,83.92 332.74,100.96,83.92 328.20,101.60,83.92"/>
    </edge>
    <edge id=":D1_5" function="internal">
        <lane id=":D1_5_0" index="0" speed="3.65" length="4.67" shape="335.31,91.38,83.92 334.97,92.78,83.92 334.36,93.44,83.92 333.47,93.34,83.92 332.31,92.49,83.92"/>
    </edge>
    <edge id=":D1_6" function="internal">
        <lane id=":D1_6_0" index="0" speed="5.87" length="9.11" shape="328.20,98.40,83.92 330.82,98.03,83.92 332.38,96.92,83.92 332.87,95.08,83.92 332.31,92.49,83.92"/>
    </edge>
    <edge id=":D1_7" function="internal">
        <lane id=":D1_7_0" index="0" speed="13.89" length="14.83" shape="328.20,98.40,83.92 343.03,98.40,83.92"/>
    </edge>
    <edge id=":D1_8" function="internal">
        <lane id=":D1_8_0" index="0" speed="3.65" length="2.34" shape="328.20,98.40,83.92 329.40,99.20,83.92 329.80,100.00,83.92"/>
    </edge>
    <edge id=":D1_11" function="internal">
        <lane id=":D1_11_0" index="0" speed="3.65" length="2.34" shape="329.80,100.00,83.92 329.40,100.80,83.92 328.20,101.60,83.92"/>
    </edge>
    <edge id=":E0_0" function="internal">
        <lane id=":E0_0_0" index="0" speed="8.85" length="11.71" shape="396.30,8.86,118.10 394.50,5.68,118.10 392.50,3.41,118.10 390.30,2.05,118.10 387.89,1.60,118.10"/>
    </edge>
    <edge id=":E0_1" function="internal">
        <lane id=":E0_1_0" index="0" speed="7.45" length="16.24" shape="396.30,8.86,118.10 394.88,4.28,118.10 395.52,1.01,118.10 398.21,-0.95,118.10 402.96,-1.60,118.10"/>
    </edge>
    <edge id=":E0_2" function="internal">
        <lane id=":E0_2_0" index="0" speed="3.65" length="4.67" shape="396.30,8.86,118.10 396.52,7.43,118.10 397.07,6.73,118.10 397.97,6.75,118.10 399.20,7.50,118.10"/>
    </edge>
    <edge id=":E0_3" function="internal">
        <lane id=":E0_3_0" index="0" speed="5.77" length="9.16" shape="402.96,1.60,118.10 400.28,1.97,118.10 398.76,3.08,118.10 398.40,4.92,118.10 399.20,7.50,118.10"/>
    </edge>
    <edge id=":E0_4" function="internal">
        <lane id=":E0_4_0" index="0" speed="13.89" length="15.06" shape="402.96,1.60,118.10 387.89,1.60,118.10"/>
    </edge>
    <edge id=":E0_5" function="internal">
        <lane id=":E0_5_0" index="0" speed="3.65" length="2.34" shape="402.96,1.60,118.10 401.76,0.80,118.10 401.36,0.00,118.10"/>
    </edge>
    <edge id=":E0_9" function="internal">
        <lane id=":E0_9_0" index="0" speed="3.65" length="2.34" shape="401.36,0.00,118.10 401.76,-0.80,118.10 402.96,-1.60,118.10"/>
    </edge>
    <edge id=":E0_6" function="internal">
        <lane id=":E0_6_0" index="0" speed="13.89" length="15.06" shape="387.89,-1.60,118.10 402.96,-1.60,118.10"/>
    </edge>
    <edge id=":E0_7" function="internal">
        <lane id=":E0_7_0" index="0" speed="10.06" length="5.49" shape="387.89,-1.60,118.10 391.24,-1.03,118.10 393.06,0.00,118.10"/>
    </edge>
    <edge id=":E0_8" function="internal">
        <lane id=":E0_8_0" index="0" speed="3.65" length="2.34" shape="387.89,-1.60,118.10 389.09,-0.80,118.10 389.49,0.00,118.10"/>
    </edge>
    <edge id=":E0_10" function="internal">
        <lane id=":E0_10_0" index="0" speed="10.06" length="9.85" shape="393.06,0.00,118.10 394.25,0.68,118.10 396.90,3.52,118.10 399.20,7.50,118.10"/>
    </edge>
    <edge id=":E0_11" function="internal">
        <lane id=":E0_11_0" index="0" speed="3.65" length="2.34" shape="389.49,0.00,118.10 389.09,0.80,118.10 387.89,1.60,118.10"/>
    </edge>
    <edge id=":E1_0" function="internal">
        <lane id=":E1_0_0" index="0" speed="13.89" length="15.06" shape="446.70,101.60,-96.36 431.63,101.60,-96.36"/>
    </edge>
    <edge id=":E1_1" function="internal">
        <lane id=":E1_1_0" index="0" speed="10.06" length="5.49" shape="446.70,101.60,-96.36 443.34,101.03,-96.36 441.53,100.00,-96.36"/>
    </edge>
    <edge id=":E1_2" function="internal">
        <lane id=":E1_2_0" index="0" speed="3.65" length="2.34" shape="446.70,101.60,-96.36 445.50,100.80,-96.36 445.10,100.00,-96.36"/>
    </edge>
    <edge id=":E1_9" function="internal">
        <lane id=":E1_9_0" index="0" speed="10.06" length="9.85" shape="441.53,100.00,-96.36 440.34,99.32,-96.36 437.69,96.48,-96.36 435.39,92.50,-96.36"/>
    </edge>
    <edge id=":E1_10" function="internal">
        <lane id=":E1_10_0" index="0" speed="3.65" length="2.34" shape="445.10,100.00,-96.36 445.50,99.20,-96.36 446.70,98.40,-96.36"/>
    </edge>
    <edge id=":E1_3" function="internal">
        <lane id=":E1_3_0" index="0" speed="8.85" length="11.71" shape="438.29,91.14,-96.36 440.08,94.32,-96.36 442.08,96.59,-96.36 444.29,97.95,-96.36 446.70,98.40,-96.36"/>
    </edge>
    <edge id=":E1_4" function="internal">
        <lane id=":E1_4_0" index="0" speed="7.45" length="16.24" shape="438.29,91.14,-96.36 439.70,95.72,-96.36 439.07,98.99,-96.36 436.38,100.95,-96.36 431.63,101.60,-96.36"/>
    </edge>
    <edge id=":E1_5" function="internal">
        <lane id=":E1_5_0" index="0" speed="3.65" length="4.67" shape="438.29,91.14,-96.36 438.07,92.57,-96.36 437.51,93.27,-96.36 436.62,93.25,-96.36 435.39,92.50,-96.36"/>
    </edge>
    <edge id=":E1_6" function="internal">
        <lane id=":E1_6_0" index="0" speed="5.77" length="9.16" shape="431.63,98.40,-96.36 434.31,98.03,-96.36 435.83,96.92,-96.36 436.19,95.08,-96.36 435.39,92.50,-96.36"/>
    </edge>
    <edge id=":E1_7" function="internal">
        <lane id=":E1_7_0" index="0" speed="13.89" length="15.06" shape="431.63,98.40,-96.36 446.70,98.40,-96.36"/>
    </edge>
    <edge id=":E1_8" function="internal">
        <lane id=":E1_8_0" index="0" speed="3.65" length="2.34" shape="431.63,98.40,-96.36 432.83,99.20,-96.36 433.23,100.00,-96.36"/>
    </edge>
    <edge id=":E1_11" function="internal">
        <lane id=":E1_11_0" index="0" speed="3.65" length="2.34" shape="433.23,100.00,-96.36 432.83,100.80,-96.36 431.63,101.60,-96.36"/>
    </edge>
    <edge id=":F0_0" function="internal">
        <lane id=":F0_0_0" index="0" speed="9.45" length="12.30" shape="489.83,9.04,-18.98 487.69,5.78,-18.98 485.46,3.46,-18.98 483.13,2.06,-18.98 480.71,1.60,-18.98"/>
    </edge>
    <edge id=":F0_1" function="internal">
        <lane id=":F0_1_0" index="0" speed="7.41" length="16.72" shape="489.83,9.04,-18.98 487.97,4.38,-18.98 488.39,1.06,-18.98 491.08,-0.94,-18.98 496.05,-1.60,-18.98"/>
    </edge>
    <edge id=":F0_2" function="internal">
        <lane id=":F0_2_0" index="0" speed="3.65" length="4.67" shape="489.83,9.04,-18.98 489.94,7.60,-18.98 490.44,6.86,-18.98 491.33,6.82,-18.98 492.62,7.47,-18.98"/>
    </edge>
    <edge id=":F0_3" function="internal">
        <lane id=":F0_3_0" index="0" speed="5.68" length="9.23" shape="496.05,1.60,-18.98 493.31,1.97,-18.98 491.82,3.07,-18.98 491.59,4.90,-18.98 492.62,7.47,-18.98"/>
    </edge>
    <edge id=":F0_4" function="internal">
        <lane id=":F0_4_0" index="0" speed="13.89" length="15.34" shape="496.05,1.60,-18.98 480.71,1.60,-18.98"/>
    </edge>
    <edge id=":F0_5" function="internal">
        <lane id=":F0_5_0" index="0" speed="3.65" length="2.34" shape="496.05,1.60,-18.98 494.85,0.80,-18.98 494.45,0.00,-18.98"/>
    </edge>
    <edge id=":F0_9" function="internal">
        <lane id=":F0_9_0" index="0" speed="3.65" length="2.34" shape="494.45,0.00,-18.98 494.85,-0.80,-18.98 496.05,-1.60,-18.98"/>
    </edge>
    <edge id=":F0_6" function="internal">
        <lane id=":F0_6_0" index="0" speed="13.89" length="15.34" shape="480.71,-1.60,-18.98 496.05,-1.60,-18.98"/>
    </edge>
    <edge id=":F0_7" function="internal">
        <lane id=":F0_7_0" index="0" speed="10.61" length="5.48" shape="480.71,-1.60,-18.98 484.01,-1.03,-18.98 485.88,0.00,-18.98"/>
    </edge>
    <edge id=":F0_8" function="internal">
        <lane id=":F0_8_0" index="0" speed="3.65" length="2.34" shape="480.71,-1.60,-18.98 481.91,-0.80,-18.98 482.31,0.00,-18.98"/>
    </edge>
    <edge id=":F0_10" function="internal">
        <lane id=":F0_10_0" index="0" speed="10.61" length="10.19" shape="485.88,0.00,-18.98 487.09,0.67,-18.98 489.96,3.50,-18.98 492.62,7.47,-18.98"/>
    </edge>
    <edge id=":F0_11" function="internal">
        <lane id=":F0_11_0" index="0" speed="3.65" length="2.34" shape="482.31,0.00,-18.98 481.91,0.80,-18.98 480.71,1.60,-18.98"/>
    </edge>
    <edge id=":F1_0" function="internal">
        <lane id=":F1_0_0" index="0" speed="13.89" length="15.27" shape="548.63,101.60,35.78 533.36,101.60,35.78"/>
    </edge>
    <edge id=":F1_1" function="internal">
        <lane id=":F1_1_0" index="0" speed="10.59" length="5.44" shape="548.63,101.60,35.78 545.36,101.03,35.78 543.50,100.00,35.78"/>
    </edge>
    <edge id=":F1_2" function="internal">
        <lane id=":F1_2_0" index="0" speed="3.65" length="2.34" shape="548.63,101.60,35.78 547.45,100.77,35.78 547.06,99.96,35.78"/>
    </edge>
    <edge id=":F1_9" function="internal">
        <lane id=":F1_9_0" index="0" speed="10.59" length="10.17" shape="543.50,100.00,35.78 542.30,99.33,35.78 539.44,96.50,35.78 536.79,92.53,35.78"/>
    </edge>
    <edge id=":F1_10" function="internal">
        <lane id=":F1_10_0" index="0" speed="3.65" length="2.34" shape="547.06,99.96,35.78 547.48,99.17,35.78 548.70,98.40,35.78"/>
    </edge>
    <edge id=":F1_3" function="internal">
        <lane id=":F1_3_0" index="0" speed="9.45" length="12.30" shape="539.58,90.96,35.78 541.72,94.22,35.78 543.95,96.54,35.78 546.28,97.94,35.78 548.70,98.40,35.78"/>
    </edge>
    <edge id=":F1_4" function="internal">
        <lane id=":F1_4_0" index="0" speed="7.41" length="16.72" shape="539.58,90.96,35.78 541.43,95.62,35.78 541.02,98.94,35.78 538.32,100.94,35.78 533.36,101.60,35.78"/>
    </edge>
    <edge id=":F1_5" function="internal">
        <lane id=":F1_5_0" index="0" speed="3.65" length="4.67" shape="539.58,90.96,35.78 539.47,92.40,35.78 538.97,93.14,35.78 538.08,93.18,35.78 536.79,92.53,35.78"/>
    </edge>
    <edge id=":F1_6" function="internal">
        <lane id=":F1_6_0" index="0" speed="5.68" length="9.23" shape="533.36,98.40,35.78 536.10,98.03,35.78 537.58,96.93,35.78 537.81,95.10,35.78 536.79,92.53,35.78"/>
    </edge>
    <edge id=":F1_7" function="internal">
        <lane id=":F1_7_0" index="0" speed="13.89" length="15.34" shape="533.36,98.40,35.78 548.70,98.40,35.78"/>
    </edge>
    <edge id=":F1_8" function="internal">
        <lane id=":F1_8_0" index="0" speed="3.65" length="2.34" shape="533.36,98.40,35.78 534.56,99.20,35.78 534.96,100.00,35.78"/>
    </edge>
    <edge id=":F1_11" function="internal">
        <lane id=":F1_11_0" index="0" speed="3.65" length="2.34" shape="534.96,100.00,35.78 534.56,100.80,35.78 533.36,101.60,35.78"/>
    </edge>
    <edge id=":G0_0" function="internal">
        <lane id=":G0_0_0" index="0" speed="7.38" length="10.11" shape="615.24,1.60,-64.62 612.84,2.00,-64.62 610.94,3.22,-64.62 609.54,5.23,-64.62 608.64,8.06,-64.62"/>
    </edge>
    <edge id=":G0_1" function="internal">
        <lane id=":G0_1_0" index="0" speed="13.89" length="14.53" shape="615.24,1.60,-64.62 600.72,1.60,-64.62"/>
    </edge>
    <edge id=":G0_2" function="internal">
        <lane id=":G0_2_0" index="0" speed="3.65" length="2.34" shape="615.24,1.60,-64.62 614.04,0.80,-64.62 613.64,0.00,-64.62"/>
    </edge>
    <edge id=":G0_9" function="internal">
        <lane id=":G0_9_0" index="0" speed="3.65" length="2.34" shape="613.64,0.00,-64.62 614.04,-0.80,-64.62 615.24,-1.60,-64.62"/>
    </edge>
    <edge id=":G0_3" function="internal">
        <lane id=":G0_3_0" index="0" speed="13.89" length="14.53" shape="600.72,-1.60,-64.62 615.24,-1.60,-64.62"/>
    </edge>
    <edge id=":G0_4" function="internal">
        <lane id=":G0_4_0" index="0" speed="7.69" length="6.03" shape="600.72,-1.60,-64.62 604.91,-1.00,-64.62 606.40,-0.00,-64.62"/>
    </edge>
    <edge id=":G0_5" function="internal">
        <lane id=":G0_5_0" index="0" speed="3.65" length="2.34" shape="600.72,-1.60,-64.62 601.92,-0.80,-64.62 602.32,0.00,-64.62"/>
    </edge>
    <edge id=":G0_10" function="internal">
        <lane id=":G0_10_0" index="0" speed="7.69" length="8.97" shape="606.40,-0.00,-64.62 607.62,0.82,-64.62 608.87,3.83,-64.62 608.64,8.06,-64.62"/>
    </edge>
    <edge id=":G0_11" function="internal">
        <lane id=":G0_11_0" index="0" speed="3.65" length="2.34" shape="602.32,0.00,-64.62 601.92,0.80,-64.62 600.72,1.60,-64.62"/>
    </edge>
    <edge id=":G0_6" function="internal">
        <lane id=":G0_6_0" index="0" speed="6.12" length="9.06" shape="605.50,7.44,-64.62 605.64,4.88,-64.62 604.89,3.06,-64.62 603.25,1.96,-64.62 600.72,1.60,-64.62"/>
    </edge>
    <edge id=":G0_7" function="internal">
        <lane id=":G0_7_0" index="0" speed="8.74" length="14.56" shape="605.50,7.44,-64.62 606.79,3.48,-64.62 608.84,0.66,-64.62 611.66,-1.04,-64.62 615.24,-1.60,-64.62"/>
    </edge>
    <edge id=":G0_8" function="internal">
        <lane id=":G0_8_0" index="0" speed="3.65" length="4.67" shape="605.50,7.44,-64.62 606.52,6.41,-64.62 607.39,6.18,-64.62 608.09,6.73,-64.62 608.64,8.06,-64.62"/>
    </edge>
    <edge id=":G1_0" function="internal">
        <lane id=":G1_0_0" index="0" speed="13.89" length="14.53" shape="596.60,101.60,-115.18 582.07,101.60,-115.18"/>
    </edge>
    <edge id=":G1_1" function="internal">
        <lane id=":G1_1_0" index="0" speed="7.69" length="6.03" shape="596.60,101.60,-115.18 592.41,101.00,-115.18 590.91,100.00,-115.18"/>
    </edge>
    <edge id=":G1_2" function="internal">
        <lane id=":G1_2_0" index="0" speed="3.65" length="2.34" shape="596.60,101.60,-115.18 595.40,100.80,-115.18 595.00,100.00,-115.18"/>
    </edge>
    <edge id=":G1_9" function="internal">
        <lane id=":G1_9_0" index="0" speed="7.69" length="8.97" shape="590.91,100.00,-115.18 589.69,99.18,-115.18 588.44,96.17,-115.18 588.67,91.94,-115.18"/>
    </edge>
    <edge id=":G1_10" function="internal">
        <lane id=":G1_10_0" index="0" speed="3.65" length="2.34" shape="595.00,100.00,-115.18 595.40,99.20,-115.18 596.60,98.40,-115.18"/>
    </edge>
    <edge id=":G1_3" function="internal">
        <lane id=":G1_3_0" index="0" speed="6.12" length="9.06" shape="591.81,92.56,-115.25 591.67,95.12,-115.23 592.42,96.94,-115.22 594.07,98.04,-115.20 596.60,98.40,-115.18"/>
    </edge>
    <edge id=":G1_4" function="internal">
        <lane id=":G1_4_0" index="0" speed="8.74" length="14.56" shape="591.81,92.56,-115.25 590.53,96.52,-115.23 588.47,99.34,-115.21 585.66,101.04,-115.20 582.07,101.60,-115.18"/>
    </edge>
    <edge id=":G1_5" function="internal">
        <lane id=":G1_5_0" index="0" speed="3.65" length="4.67" shape="591.81,92.56,-115.25 590.79,93.59,-115.23 589.93,93.82,-115.22 589.22,93.27,-115.20 588.67,91.94,-115.18"/>
    </edge>
    <edge id=":G1_6" function="internal">
        <lane id=":G1_6_0" index="0" speed="7.38" length="10.11" shape="582.07,98.40,-115.18 584.48,98.00,-115.18 586.38,96.78,-115.18 587.78,94.77,-115.18 588.67,91.94,-115.18"/>
    </edge>
    <edge id=":G1_7" function="internal">