<?xml version="1.0" encoding="UTF-8"?>

<!-- generated on 07/28/20 19:11:46 by Eclipse SUMO netgenerate Version 1.5.0
<configuration xmlns:xsi="http://www.w3.org/2001/XMLSchema-instance" xsi:noNamespaceSchemaLocation="http://sumo.dlr.de/xsd/netgenerateConfiguration.xsd">

    <grid_network>
        <grid value="true"/>
        <grid.x-number value="21"/>
        <grid.y-number value="2"/>
    </grid_network>

    <output>
        <output-file value="6.net.xml"/>
    </output>

    <processing>
        <perturb-z value="25"/>
    </processing>

    <building_defaults>
        <default.speed value="100"/>
    </building_defaults>

    <random_number>
        <seed value="8351704"/>
    </random_number>

</configuration>
-->

<net version="1.3" junctionCornerDetail="5" limitTurnSpeed="5.50" xmlns:xsi="http://www.w3.org/2001/XMLSchema-instance" xsi:noNamespaceSchemaLocation="http://sumo.dlr.de/xsd/net_file.xsd">

    <location netOffset="0.00,0.00" convBoundary="0.00,0.00,2000.00,100.00" origBoundary="0.00,0.00,2000.00,100.00" projParameter="!"/>

    <edge id=":A0_0" function="internal">
        <lane id=":A0_0_0" index="0" speed="6.08" length="7.80" shape="-1.60,3.20,-0.60 -1.30,1.10,-0.86 -0.40,-0.40,-1.07 1.10,-1.30,-1.28 3.20,-1.60,-1.54"/>
    </edge>
    <edge id=":A0_1" function="internal">
        <lane id=":A0_1_0" index="0" speed="3.90" length="2.77" shape="3.20,1.60,-1.60 2.50,1.70,-1.33 2.00,2.00,-1.10 1.70,2.50,-0.88 1.60,3.20,-0.60"/>
    </edge>
    <edge id=":A1_0" function="internal">
        <lane id=":A1_0_0" index="0" speed="6.08" length="7.76" shape="3.20,101.60,1.96 1.10,101.30,2.12 -0.40,100.40,2.25 -1.30,98.90,2.38 -1.60,96.80,2.53"/>
    </edge>
    <edge id=":A1_1" function="internal">
        <lane id=":A1_1_0" index="0" speed="3.90" length="2.63" shape="1.60,96.80,2.53 1.70,97.50,2.39 2.00,98.00,2.27 2.50,98.30,2.15 3.20,98.40,2.01"/>
    </edge>
    <edge id=":B0_0" function="internal">
        <lane id=":B0_0_0" index="0" speed="6.51" length="9.03" shape="98.40,7.20,-26.63 98.05,4.75,-26.63 97.00,3.00,-26.63 95.25,1.95,-26.63 92.80,1.60,-26.63"/>
    </edge>
    <edge id=":B0_1" function="internal">
        <lane id=":B0_1_0" index="0" speed="8.00" length="14.19" shape="98.40,7.20,-26.63 98.95,3.35,-26.63 100.60,0.60,-26.63 103.35,-1.05,-26.63 107.20,-1.60,-26.63"/>
    </edge>
    <edge id=":B0_2" function="internal">
        <lane id=":B0_2_0" index="0" speed="3.65" length="4.67" shape="98.40,7.20,-26.63 99.20,6.00,-26.63 100.00,5.60,-26.63 100.80,6.00,-26.63 101.60,7.20,-26.63"/>
    </edge>
    <edge id=":B0_3" function="internal">
        <lane id=":B0_3_0" index="0" speed="6.51" length="9.03" shape="107.20,1.60,-26.63 104.75,1.95,-26.63 103.00,3.00,-26.63 101.95,4.75,-26.63 101.60,7.20,-26.63"/>
    </edge>
    <edge id=":B0_4" function="internal">
        <lane id=":B0_4_0" index="0" speed="100.00" length="14.40" shape="107.20,1.60,-26.63 92.80,1.60,-26.63"/>
    </edge>
    <edge id=":B0_5" function="internal">
        <lane id=":B0_5_0" index="0" speed="3.65" length="2.34" shape="107.20,1.60,-26.63 106.00,0.80,-26.63 105.60,0.00,-26.63"/>
    </edge>
    <edge id=":B0_9" function="internal">
        <lane id=":B0_9_0" index="0" speed="3.65" length="2.34" shape="105.60,0.00,-26.63 106.00,-0.80,-26.63 107.20,-1.60,-26.63"/>
    </edge>
    <edge id=":B0_6" function="internal">
        <lane id=":B0_6_0" index="0" speed="100.00" length="14.40" shape="92.80,-1.60,-26.63 107.20,-1.60,-26.63"/>
    </edge>
    <edge id=":B0_7" function="internal">
        <lane id=":B0_7_0" index="0" speed="8.00" length="5.93" shape="92.80,-1.60,-26.63 96.65,-1.05,-26.63 98.40,0.00,-26.63"/>
    </edge>
    <edge id=":B0_8" function="internal">
        <lane id=":B0_8_0" index="0" speed="3.65" length="2.34" shape="92.80,-1.60,-26.63 94.00,-0.80,-26.63 94.40,0.00,-26.63"/>
    </edge>
    <edge id=":B0_10" function="internal">
        <lane id=":B0_10_0" index="0" speed="8.00" length="8.26" shape="98.40,0.00,-26.63 99.40,0.60,-26.63 101.05,3.35,-26.63 101.60,7.20,-26.63"/>
    </edge>
    <edge id=":B0_11" function="internal">
        <lane id=":B0_11_0" index="0" speed="3.65" length="2.34" shape="94.40,0.00,-26.63 94.00,0.80,-26.63 92.80,1.60,-26.63"/>
    </edge>
    <edge id=":B1_0" function="internal">
        <lane id=":B1_0_0" index="0" speed="100.00" length="14.40" shape="107.20,101.60,-17.04 92.80,101.60,-17.04"/>
    </edge>
    <edge id=":B1_1" function="internal">
        <lane id=":B1_1_0" index="0" speed="8.00" length="5.93" shape="107.20,101.60,-17.04 103.35,101.05,-17.04 101.60,100.00,-17.04"/>
    </edge>
    <edge id=":B1_2" function="internal">
        <lane id=":B1_2_0" index="0" speed="3.65" length="2.34" shape="107.20,101.60,-17.04 106.00,100.80,-17.04 105.60,100.00,-17.04"/>
    </edge>
    <edge id=":B1_9" function="internal">
        <lane id=":B1_9_0" index="0" speed="8.00" length="8.26" shape="101.60,100.00,-17.04 100.60,99.40,-17.04 98.95,96.65,-17.04 98.40,92.80,-17.04"/>
    </edge>
    <edge id=":B1_10" function="internal">
        <lane id=":B1_10_0" index="0" speed="3.65" length="2.34" shape="105.60,100.00,-17.04 106.00,99.20,-17.04 107.20,98.40,-17.04"/>
    </edge>
    <edge id=":B1_3" function="internal">
        <lane id=":B1_3_0" index="0" speed="6.51" length="9.03" shape="101.60,92.80,-17.04 101.95,95.25,-17.04 103.00,97.00,-17.04 104.75,98.05,-17.04 107.20,98.40,-17.04"/>
    </edge>
    <edge id=":B1_4" function="internal">
        <lane id=":B1_4_0" index="0" speed="8.00" length="14.19" shape="101.60,92.80,-17.04 101.05,96.65,-17.04 99.40,99.40,-17.04 96.65,101.05,-17.04 92.80,101.60,-17.04"/>
    </edge>
    <edge id=":B1_5" function="internal">
        <lane id=":B1_5_0" index="0" speed="3.65" length="4.67" shape="101.60,92.80,-17.04 100.80,94.00,-17.04 100.00,94.40,-17.04 99.20,94.00,-17.04 98.40,92.80,-17.04"/>
    </edge>
    <edge id=":B1_6" function="internal">
        <lane id=":B1_6_0" index="0" speed="6.51" length="9.03" shape="92.80,98.40,-17.04 95.25,98.05,-17.04 97.00,97.00,-17.04 98.05,95.25,-17.04 98.40,92.80,-17.04"/>
    </edge>
    <edge id=":B1_7" function="internal">
        <lane id=":B1_7_0" index="0" speed="100.00" length="14.40" shape="92.80,98.40,-17.04 107.20,98.40,-17.04"/>
    </edge>
    <edge id=":B1_8" function="internal">
        <lane id=":B1_8_0" index="0" speed="3.65" length="2.34" shape="92.80,98.40,-17.04 94.00,99.20,-17.04 94.40,100.00,-17.04"/>
    </edge>
    <edge id=":B1_11" function="internal">
        <lane id=":B1_11_0" index="0" speed="3.65" length="2.34" shape="94.40,100.00,-17.04 94.00,100.80,-17.04 92.80,101.60,-17.04"/>
    </edge>
    <edge id=":C0_0" function="internal">
        <lane id=":C0_0_0" index="0" speed="6.51" length="9.03" shape="198.40,7.20,3.33 198.05,4.75,3.33 197.00,3.00,3.33 195.25,1.95,3.33 192.80,1.60,3.33"/>
    </edge>
    <edge id=":C0_1" function="internal">
        <lane id=":C0_1_0" index="0" speed="8.00" length="14.19" shape="198.40,7.20,3.33 198.95,3.35,3.33 200.60,0.60,3.33 203.35,-1.05,3.33 207.20,-1.60,3.33"/>
    </edge>
    <edge id=":C0_2" function="internal">
        <lane id=":C0_2_0" index="0" speed="3.65" length="4.67" shape="198.40,7.20,3.33 199.20,6.00,3.33 200.00,5.60,3.33 200.80,6.00,3.33 201.60,7.20,3.33"/>
    </edge>
    <edge id=":C0_3" function="internal">
        <lane id=":C0_3_0" index="0" speed="6.51" length="9.03" shape="207.20,1.60,3.33 204.75,1.95,3.33 203.00,3.00,3.33 201.95,4.75,3.33 201.60,7.20,3.33"/>
    </edge>
    <edge id=":C0_4" function="internal">
        <lane id=":C0_4_0" index="0" speed="100.00" length="14.40" shape="207.20,1.60,3.33 192.80,1.60,3.33"/>
    </edge>
    <edge id=":C0_5" function="internal">
        <lane id=":C0_5_0" index="0" speed="3.65" length="2.34" shape="207.20,1.60,3.33 206.00,0.80,3.33 205.60,0.00,3.33"/>
    </edge>
    <edge id=":C0_9" function="internal">
        <lane id=":C0_9_0" index="0" speed="3.65" length="2.34" shape="205.60,0.00,3.33 206.00,-0.80,3.33 207.20,-1.60,3.33"/>
    </edge>
    <edge id=":C0_6" function="internal">
        <lane id=":C0_6_0" index="0" speed="100.00" length="14.40" shape="192.80,-1.60,3.33 207.20,-1.60,3.33"/>
    </edge>
    <edge id=":C0_7" function="internal">
        <lane id=":C0_7_0" index="0" speed="8.00" length="5.93" shape="192.80,-1.60,3.33 196.65,-1.05,3.33 198.40,0.00,3.33"/>
    </edge>
    <edge id=":C0_8" function="internal">
        <lane id=":C0_8_0" index="0" speed="3.65" length="2.34" shape="192.80,-1.60,3.33 194.00,-0.80,3.33 194.40,0.00,3.33"/>
    </edge>
    <edge id=":C0_10" function="internal">
        <lane id=":C0_10_0" index="0" speed="8.00" length="8.26" shape="198.40,0.00,3.33 199.40,0.60,3.33 201.05,3.35,3.33 201.60,7.20,3.33"/>
    </edge>
    <edge id=":C0_11" function="internal">
        <lane id=":C0_11_0" index="0" speed="3.65" length="2.34" shape="194.40,0.00,3.33 194.00,0.80,3.33 192.80,1.60,3.33"/>
    </edge>
    <edge id=":C1_0" function="internal">
        <lane id=":C1_0_0" index="0" speed="100.00" length="14.40" shape="207.20,101.60,-0.55 192.80,101.60,-0.55"/>
    </edge>
    <edge id=":C1_1" function="internal">
        <lane id=":C1_1_0" index="0" speed="8.00" length="5.93" shape="207.20,101.60,-0.55 203.35,101.05,-0.55 201.60,100.00,-0.55"/>
    </edge>
    <edge id=":C1_2" function="internal">
        <lane id=":C1_2_0" index="0" speed="3.65" length="2.34" shape="207.20,101.60,-0.55 206.00,100.80,-0.55 205.60,100.00,-0.55"/>
    </edge>
    <edge id=":C1_9" function="internal">
        <lane id=":C1_9_0" index="0" speed="8.00" length="8.26" shape="201.60,100.00,-0.55 200.60,99.40,-0.55 198.95,96.65,-0.55 198.40,92.80,-0.55"/>
    </edge>
    <edge id=":C1_10" function="internal">
        <lane id=":C1_10_0" index="0" speed="3.65" length="2.34" shape="205.60,100.00,-0.55 206.00,99.20,-0.55 207.20,98.40,-0.55"/>
    </edge>
    <edge id=":C1_3" function="internal">
        <lane id=":C1_3_0" index="0" speed="6.51" length="9.03" shape="201.60,92.80,-0.55 201.95,95.25,-0.55 203.00,97.00,-0.55 204.75,98.05,-0.55 207.20,98.40,-0.55"/>
    </edge>
    <edge id=":C1_4" function="internal">
        <lane id=":C1_4_0" index="0" speed="8.00" length="14.19" shape="201.60,92.80,-0.55 201.05,96.65,-0.55 199.40,99.40,-0.55 196.65,101.05,-0.55 192.80,101.60,-0.55"/>
    </edge>
    <edge id=":C1_5" function="internal">
        <lane id=":C1_5_0" index="0" speed="3.65" length="4.67" shape="201.60,92.80,-0.55 200.80,94.00,-0.55 200.00,94.40,-0.55 199.20,94.00,-0.55 198.40,92.80,-0.55"/>
    </edge>
    <edge id=":C1_6" function="internal">
        <lane id=":C1_6_0" index="0" speed="6.51" length="9.03" shape="192.80,98.40,-0.55 195.25,98.05,-0.55 197.00,97.00,-0.55 198.05,95.25,-0.55 198.40,92.80,-0.55"/>
    </edge>
    <edge id=":C1_7" function="internal">
        <lane id=":C1_7_0" index="0" speed="100.00" length="14.40" shape="192.80,98.40,-0.55 207.20,98.40,-0.55"/>
    </edge>
    <edge id=":C1_8" function="internal">
        <lane id=":C1_8_0" index="0" speed="3.65" length="2.34" shape="192.80,98.40,-0.55 194.00,99.20,-0.55 194.40,100.00,-0.55"/>
    </edge>
    <edge id=":C1_11" function="internal">
        <lane id=":C1_11_0" index="0" speed="3.65" length="2.34" shape="194.40,100.00,-0.55 194.00,100.80,-0.55 192.80,101.60,-0.55"/>
    </edge>
    <edge id=":D0_0" function="internal">
        <lane id=":D0_0_0" index="0" speed="6.51" length="9.03" shape="298.40,7.20,51.61 298.05,4.75,51.61 297.00,3.00,51.61 295.25,1.95,51.61 292.80,1.60,51.61"/>
    </edge>
    <edge id=":D0_1" function="internal">
        <lane id=":D0_1_0" index="0" speed="8.00" length="14.19" shape="298.40,7.20,51.61 298.95,3.35,51.61 300.60,0.60,51.61 303.35,-1.05,51.61 307.20,-1.60,51.61"/>
    </edge>
    <edge id=":D0_2" function="internal">
        <lane id=":D0_2_0" index="0" speed="3.65" length="4.67" shape="298.40,7.20,51.61 299.20,6.00,51.61 300.00,5.60,51.61 300.80,6.00,51.61 301.60,7.20,51.61"/>
    </edge>
    <edge id=":D0_3" function="internal">
        <lane id=":D0_3_0" index="0" speed="6.51" length="9.03" shape="307.20,1.60,51.61 304.75,1.95,51.61 303.00,3.00,51.61 301.95,4.75,51.61 301.60,7.20,51.61"/>
    </edge>
    <edge id=":D0_4" function="internal">
        <lane id=":D0_4_0" index="0" speed="100.00" length="14.40" shape="307.20,1.60,51.61 292.80,1.60,51.61"/>
    </edge>
    <edge id=":D0_5" function="internal">
        <lane id=":D0_5_0" index="0" speed="3.65" length="2.34" shape="307.20,1.60,51.61 306.00,0.80,51.61 305.60,0.00,51.61"/>
    </edge>
    <edge id=":D0_9" function="internal">
        <lane id=":D0_9_0" index="0" speed="3.65" length="2.34" shape="305.60,0.00,51.61 306.00,-0.80,51.61 307.20,-1.60,51.61"/>
    </edge>
    <edge id=":D0_6" function="internal">
        <lane id=":D0_6_0" index="0" speed="100.00" length="14.40" shape="292.80,-1.60,51.61 307.20,-1.60,51.61"/>
    </edge>
    <edge id=":D0_7" function="internal">
        <lane id=":D0_7_0" index="0" speed="8.00" length="5.93" shape="292.80,-1.60,51.61 296.65,-1.05,51.61 298.40,-0.00,51.61"/>
    </edge>
    <edge id=":D0_8" function="internal">
        <lane id=":D0_8_0" index="0" speed="3.65" length="2.34" shape="292.80,-1.60,51.61 294.00,-0.80,51.61 294.40,0.00,51.61"/>
    </edge>
    <edge id=":D0_10" function="internal">
        <lane id=":D0_10_0" index="0" speed="8.00" length="8.26" shape="298.40,-0.00,51.61 299.40,0.60,51.61 301.05,3.35,51.61 301.60,7.20,51.61"/>
    </edge>
    <edge id=":D0_11" function="internal">
        <lane id=":D0_11_0" index="0" speed="3.65" length="2.34" shape="294.40,0.00,51.61 294.00,0.80,51.61 292.80,1.60,51.61"/>
    </edge>
    <edge id=":D1_0" function="internal">
        <lane id=":D1_0_0" index="0" speed="100.00" length="14.40" shape="307.20,101.60,-34.98 292.80,101.60,-34.98"/>
    </edge>
    <edge id=":D1_1" function="internal">
        <lane id=":D1_1_0" index="0" speed="8.00" length="5.93" shape="307.20,101.60,-34.98 303.35,101.05,-34.98 301.60,100.00,-34.98"/>
    </edge>
    <edge id=":D1_2" function="internal">
        <lane id=":D1_2_0" index="0" speed="3.65" length="2.34" shape="307.20,101.60,-34.98 306.00,100.80,-34.98 305.60,100.00,-34.98"/>
    </edge>
    <edge id=":D1_9" function="internal">
        <lane id=":D1_9_0" index="0" speed="8.00" length="8.26" shape="301.60,100.00,-34.98 300.60,99.40,-34.98 298.95,96.65,-34.98 298.40,92.80,-34.98"/>
    </edge>
    <edge id=":D1_10" function="internal">
        <lane id=":D1_10_0" index="0" speed="3.65" length="2.34" shape="305.60,100.00,-34.98 306.00,99.20,-34.98 307.20,98.40,-34.98"/>
    </edge>
    <edge id=":D1_3" function="internal">
        <lane id=":D1_3_0" index="0" speed="6.51" length="9.03" shape="301.60,92.80,-34.98 301.95,95.25,-34.98 303.00,97.00,-34.98 304.75,98.05,-34.98 307.20,98.40,-34.98"/>
    </edge>
    <edge id=":D1_4" function="internal">
        <lane id=":D1_4_0" index="0" speed="8.00" length="14.19" shape="301.60,92.80,-34.98 301.05,96.65,-34.98 299.40,99.40,-34.98 296.65,101.05,-34.98 292.80,101.60,-34.98"/>
    </edge>
    <edge id=":D1_5" function="internal">
        <lane id=":D1_5_0" index="0" speed="3.65" length="4.67" shape="301.60,92.80,-34.98 300.80,94.00,-34.98 300.00,94.40,-34.98 299.20,94.00,-34.98 298.40,92.80,-34.98"/>
    </edge>
    <edge id=":D1_6" function="internal">
        <lane id=":D1_6_0" index="0" speed="6.51" length="9.03" shape="292.80,98.40,-34.98 295.25,98.05,-34.98 297.00,97.00,-34.98 298.05,95.25,-34.98 298.40,92.80,-34.98"/>
    </edge>
    <edge id=":D1_7" function="internal">
        <lane id=":D1_7_0" index="0" speed="100.00" length="14.40" shape="292.80,98.40,-34.98 307.20,98.40,-34.98"/>
    </edge>
    <edge id=":D1_8" function="internal">
        <lane id=":D1_8_0" index="0" speed="3.65" length="2.34" shape="292.80,98.40,-34.98 294.00,99.20,-34.98 294.40,100.00,-34.98"/>
    </edge>
    <edge id=":D1_11" function="internal">
        <lane id=":D1_11_0" index="0" speed="3.65" length="2.34" shape="294.40,100.00,-34.98 294.00,100.80,-34.98 292.80,101.60,-34.98"/>
    </edge>
    <edge id=":E0_0" function="internal">
        <lane id=":E0_0_0" index="0" speed="6.51" length="9.03" shape="398.40,7.20,11.78 398.05,4.75,11.78 397.00,3.00,11.78 395.25,1.95,11.78 392.80,1.60,11.78"/>
    </edge>
    <edge id=":E0_1" function="internal">
        <lane id=":E0_1_0" index="0" speed="8.00" length="14.19" shape="398.40,7.20,11.78 398.95,3.35,11.78 400.60,0.60,11.78 403.35,-1.05,11.78 407.20,-1.60,11.78"/>
    </edge>
    <edge id=":E0_2" function="internal">
        <lane id=":E0_2_0" index="0" speed="3.65" length="4.67" shape="398.40,7.20,11.78 399.20,6.00,11.78 400.00,5.60,11.78 400.80,6.00,11.78 401.60,7.20,11.78"/>
    </edge>
    <edge id=":E0_3" function="internal">
        <lane id=":E0_3_0" index="0" speed="6.51" length="9.03" shape="407.20,1.60,11.78 404.75,1.95,11.78 403.00,3.00,11.78 401.95,4.75,11.78 401.60,7.20,11.78"/>
    </edge>
    <edge id=":E0_4" function="internal">
        <lane id=":E0_4_0" index="0" speed="100.00" length="14.40" shape="407.20,1.60,11.78 392.80,1.60,11.78"/>
    </edge>
    <edge id=":E0_5" function="internal">
        <lane id=":E0_5_0" index="0" speed="3.65" length="2.34" shape="407.20,1.60,11.78 406.00,0.80,11.78 405.60,0.00,11.78"/>
    </edge>
    <edge id=":E0_9" function="internal">
        <lane id=":E0_9_0" index="0" speed="3.65" length="2.34" shape="405.60,0.00,11.78 406.00,-0.80,11.78 407.20,-1.60,11.78"/>
    </edge>
    <edge id=":E0_6" function="internal">
        <lane id=":E0_6_0" index="0" speed="100.00" length="14.40" shape="392.80,-1.60,11.78 407.20,-1.60,11.78"/>
    </edge>
    <edge id=":E0_7" function="internal">
        <lane id=":E0_7_0" index="0" speed="8.00" length="5.93" shape="392.80,-1.60,11.78 396.65,-1.05,11.78 398.40,-0.00,11.78"/>
    </edge>
    <edge id=":E0_8" function="internal">
        <lane id=":E0_8_0" index="0" speed="3.65" length="2.34" shape="392.80,-1.60,11.78 394.00,-0.80,11.78 394.40,0.00,11.78"/>
    </edge>
    <edge id=":E0_10" function="internal">
        <lane id=":E0_10_0" index="0" speed="8.00" length="8.26" shape="398.40,-0.00,11.78 399.40,0.60,11.78 401.05,3.35,11.78 401.60,7.20,11.78"/>
    </edge>
    <edge id=":E0_11" function="internal">
        <lane id=":E0_11_0" index="0" speed="3.65" length="2.34" shape="394.40,0.00,11.78 394.00,0.80,11.78 392.80,1.60,11.78"/>
    </edge>
    <edge id=":E1_0" function="internal">
        <lane id=":E1_0_0" index="0" speed="100.00" length="14.40" shape="407.20,101.60,0.92 392.80,101.60,0.92"/>
    </edge>
    <edge id=":E1_1" function="internal">
        <lane id=":E1_1_0" index="0" speed="8.00" length="5.93" shape="407.20,101.60,0.92 403.35,101.05,0.92 401.60,100.00,0.92"/>
    </edge>
    <edge id=":E1_2" function="internal">
        <lane id=":E1_2_0" index="0" speed="3.65" length="2.34" shape="407.20,101.60,0.92 406.00,100.80,0.92 405.60,100.00,0.92"/>
    </edge>
    <edge id=":E1_9" function="internal">
        <lane id=":E1_9_0" index="0" speed="8.00" length="8.26" shape="401.60,100.00,0.92 400.60,99.40,0.92 398.95,96.65,0.92 398.40,92.80,0.92"/>
    </edge>
    <edge id=":E1_10" function="internal">
        <lane id=":E1_10_0" index="0" speed="3.65" length="2.34" shape="405.60,100.00,0.92 406.00,99.20,0.92 407.20,98.40,0.92"/>
    </edge>
    <edge id=":E1_3" function="internal">
        <lane id=":E1_3_0" index="0" speed="6.51" length="9.03" shape="401.60,92.80,0.92 401.95,95.25,0.92 403.00,97.00,0.92 404.75,98.05,0.92 407.20,98.40,0.92"/>
    </edge>
    <edge id=":E1_4" function="internal">
        <lane id=":E1_4_0" index="0" speed="8.00" length="14.19" shape="401.60,92.80,0.92 401.05,96.65,0.92 399.40,99.40,0.92 396.65,101.05,0.92 392.80,101.60,0.92"/>
    </edge>
    <edge id=":E1_5" function="internal">
        <lane id=":E1_5_0" index="0" speed="3.65" length="4.67" shape="401.60,92.80,0.92 400.80,94.00,0.92 400.00,94.40,0.92 399.20,94.00,0.92 398.40,92.80,0.92"/>
    </edge>
    <edge id=":E1_6" function="internal">
        <lane id=":E1_6_0" index="0" speed="6.51" length="9.03" shape="392.80,98.40,0.92 395.25,98.05,0.92 397.00,97.00,0.92 398.05,95.25,0.92 398.40,92.80,0.92"/>
    </edge>
    <edge id=":E1_7" function="internal">
        <lane id=":E1_7_0" index="0" speed="100.00" length="14.40" shape="392.80,98.40,0.92 407.20,98.40,0.92"/>
    </edge>
    <edge id=":E1_8" function="internal">
        <lane id=":E1_8_0" index="0" speed="3.65" length="2.34" shape="392.80,98.40,0.92 394.00,99.20,0.92 394.40,100.00,0.92"/>
    </edge>
    <edge id=":E1_11" function="internal">
        <lane id=":E1_11_0" index="0" speed="3.65" length="2.34" shape="394.40,100.00,0.92 394.00,100.80,0.92 392.80,101.60,0.92"/>
    </edge>
    <edge id=":F0_0" function="internal">
        <lane id=":F0_0_0" index="0" speed="6.51" length="9.03" shape="498.40,7.20,15.58 498.05,4.75,15.58 497.00,3.00,15.58 495.25,1.95,15.58 492.80,1.60,15.58"/>
    </edge>
    <edge id=":F0_1" function="internal">
        <lane id=":F0_1_0" index="0" speed="8.00" length="14.19" shape="498.40,7.20,15.58 498.95,3.35,15.58 500.60,0.60,15.58 503.35,-1.05,15.58 507.20,-1.60,15.58"/>
    </edge>
    <edge id=":F0_2" function="internal">
        <lane id=":F0_2_0" index="0" speed="3.65" length="4.67" shape="498.40,7.20,15.58 499.20,6.00,15.58 500.00,5.60,15.58 500.80,6.00,15.58 501.60,7.20,15.58"/>
    </edge>
    <edge id=":F0_3" function="internal">
        <lane id=":F0_3_0" index="0" speed="6.51" length="9.03" shape="507.20,1.60,15.58 504.75,1.95,15.58 503.00,3.00,15.58 501.95,4.75,15.58 501.60,7.20,15.58"/>
    </edge>
    <edge id=":F0_4" function="internal">
        <lane id=":F0_4_0" index="0" speed="100.00" length="14.40" shape="507.20,1.60,15.58 492.80,1.60,15.58"/>
    </edge>
    <edge id=":F0_5" function="internal">
        <lane id=":F0_5_0" index="0" speed="3.65" length="2.34" shape="507.20,1.60,15.58 506.00,0.80,15.58 505.60,0.00,15.58"/>
    </edge>
    <edge id=":F0_9" function="internal">
        <lane id=":F0_9_0" index="0" speed="3.65" length="2.34" shape="505.60,0.00,15.58 506.00,-0.80,15.58 507.20,-1.60,15.58"/>
    </edge>
    <edge id=":F0_6" function="internal">
        <lane id=":F0_6_0" index="0" speed="100.00" length="14.40" shape="492.80,-1.60,15.58 507.20,-1.60,15.58"/>
    </edge>
    <edge id=":F0_7" function="internal">
        <lane id=":F0_7_0" index="0" speed="8.00" length="5.93" shape="492.80,-1.60,15.58 496.65,-1.05,15.58 498.40,-0.00,15.58"/>
    </edge>
    <edge id=":F0_8" function="internal">
        <lane id=":F0_8_0" index="0" speed="3.65" length="2.34" shape="492.80,-1.60,15.58 494.00,-0.80,15.58 494.40,0.00,15.58"/>
    </edge>
    <edge id=":F0_10" function="internal">
        <lane id=":F0_10_0" index="0" speed="8.00" length="8.26" shape="498.40,-0.00,15.58 499.40,0.60,15.58 501.05,3.35,15.58 501.60,7.20,15.58"/>
    </edge>
    <edge id=":F0_11" function="internal">
        <lane id=":F0_11_0" index="0" speed="3.65" length="2.34" shape="494.40,0.00,15.58 494.00,0.80,15.58 492.80,1.60,15.58"/>
    </edge>
    <edge id=":F1_0" function="internal">
        <lane id=":F1_0_0" index="0" speed="100.00" length="14.40" shape="507.20,101.60,53.78 492.80,101.60,53.78"/>
    </edge>
    <edge id=":F1_1" function="internal">
        <lane id=":F1_1_0" index="0" speed="8.00" length="5.93" shape="507.20,101.60,53.78 503.35,101.05,53.78 501.60,100.00,53.78"/>
    </edge>
    <edge id=":F1_2" function="internal">
        <lane id=":F1_2_0" index="0" speed="3.65" length="2.34" shape="507.20,101.60,53.78 506.00,100.80,53.78 505.60,100.00,53.78"/>
    </edge>
    <edge id=":F1_9" function="internal">
        <lane id=":F1_9_0" index="0" speed="8.00" length="8.26" shape="501.60,100.00,53.78 500.60,99.40,53.78 498.95,96.65,53.78 498.40,92.80,53.78"/>
    </edge>
    <edge id=":F1_10" function="internal">
        <lane id=":F1_10_0" index="0" speed="3.65" length="2.34" shape="505.60,100.00,53.78 506.00,99.20,53.78 507.20,98.40,53.78"/>
    </edge>
    <edge id=":F1_3" function="internal">
        <lane id=":F1_3_0" index="0" speed="6.51" length="9.03" shape="501.60,92.80,53.78 501.95,95.25,53.78 503.00,97.00,53.78 504.75,98.05,53.78 507.20,98.40,53.78"/>
    </edge>
    <edge id=":F1_4" function="internal">
        <lane id=":F1_4_0" index="0" speed="8.00" length="14.19" shape="501.60,92.80,53.78 501.05,96.65,53.78 499.40,99.40,53.78 496.65,101.05,53.78 492.80,101.60,53.78"/>
    </edge>
    <edge id=":F1_5" function="internal">
        <lane id=":F1_5_0" index="0" speed="3.65" length="4.67" shape="501.60,92.80,53.78 500.80,94.00,53.78 500.00,94.40,53.78 499.20,94.00,53.78 498.40,92.80,53.78"/>
    </edge>
    <edge id=":F1_6" function="internal">
        <lane id=":F1_6_0" index="0" speed="6.51" length="9.03" shape="492.80,98.40,53.78 495.25,98.05,53.78 497.00,97.00,53.78 498.05,95.25,53.78 498.40,92.80,53.78"/>
    </edge>
    <edge id=":F1_7" function="internal">
        <lane id=":F1_7_0" index="0" speed="100.00" length="14.40" shape="492.80,98.40,53.78 507.20,98.40,53.78"/>
    </edge>
    <edge id=":F1_8" function="internal">
        <lane id=":F1_8_0" index="0" speed="3.65" length="2.34" shape="492.80,98.40,53.78 494.00,99.20,53.78 494.40,100.00,53.78"/>
    </edge>
    <edge id=":F1_11" function="internal">
        <lane id=":F1_11_0" index="0" speed="3.65" length="2.34" shape="494.40,100.00,53.78 494.00,100.80,53.78 492.80,101.60,53.78"/>
    </edge>
    <edge id=":G0_0" function="internal">
        <lane id=":G0_0_0" index="0" speed="6.51" length="9.03" shape="598.40,7.20,-33.34 598.05,4.75,-33.34 597.00,3.00,-33.34 595.25,1.95,-33.34 592.80,1.60,-33.34"/>
    </edge>
    <edge id=":G0_1" function="internal">
        <lane id=":G0_1_0" index="0" speed="8.00" length="14.19" shape="598.40,7.20,-33.34 598.95,3.35,-33.34 600.60,0.60,-33.34 603.35,-1.05,-33.34 607.20,-1.60,-33.34"/>
    </edge>
    <edge id=":G0_2" function="internal">
        <lane id=":G0_2_0" index="0" speed="3.65" length="4.67" shape="598.40,7.20,-33.34 599.20,6.00,-33.34 600.00,5.60,-33.34 600.80,6.00,-33.34 601.60,7.20,-33.34"/>
    </edge>
    <edge id=":G0_3" function="internal">
        <lane id=":G0_3_0" index="0" speed="6.51" length="9.03" shape="607.20,1.60,-33.34 604.75,1.95,-33.34 603.00,3.00,-33.34 601.95,4.75,-33.34 601.60,7.20,-33.34"/>
    </edge>
    <edge id=":G0_4" function="internal">
        <lane id=":G0_4_0" index="0" speed="100.00" length="14.40" shape="607.20,1.60,-33.34 592.80,1.60,-33.34"/>
    </edge>
    <edge id=":G0_5" function="internal">
        <lane id=":G0_5_0" index="0" speed="3.65" length="2.34" shape="607.20,1.60,-33.34 606.00,0.80,-33.34 605.60,0.00,-33.34"/>
    </edge>
    <edge id=":G0_9" function="internal">
        <lane id=":G0_9_0" index="0" speed="3.65" length="2.34" shape="605.60,0.00,-33.34 606.00,-0.80,-33.34 607.20,-1.60,-33.34"/>
    </edge>
    <edge id=":G0_6" function="internal">
        <lane id=":G0_6_0" index="0" speed="100.00" length="14.40" shape="592.80,-1.60,-33.34 607.20,-1.60,-33.34"/>
    </edge>
    <edge id=":G0_7" function="internal">
        <lane id=":G0_7_0" index="0" speed="8.00" length="5.93" shape="592.80,-1.60,-33.34 596.65,-1.05,-33.34 598.40,0.00,-33.34"/>
    </edge>
    <edge id=":G0_8" function="internal">
        <lane id=":G0_8_0" index="0" speed="3.65" length="2.34" shape="592.80,-1.60,-33.34 594.00,-0.80,-33.34 594.40,0.00,-33.34"/>
    </edge>
    <edge id=":G0_10" function="internal">
        <lane id=":G0_10_0" index="0" speed="8.00" length="8.26" shape="598.40,0.00,-33.34 599.40,0.60,-33.34 601.05,3.35,-33.34 601.60,7.20,-33.34"/>
    </edge>
    <edge id=":G0_11" function="internal">
        <lane id=":G0_11_0" index="0" speed="3.65" length="2.34" shape="594.40,0.00,-33.34 594.00,0.80,-33.34 592.80,1.60,-33.34"/>
    </edge>
    <edge id=":G1_0" function="internal">
        <lane id=":G1_0_0" index="0" speed="100.00" length="14.40" shape="607.20,101.60,-17.46 592.80,101.60,-17.46"/>
    </edge>
    <edge id=":G1_1" function="internal">
        <lane id=":G1_1_0" index="0" speed="8.00" length="5.93" shape="607.20,101.60,-17.46 603.35,101.05,-17.46 601.60,100.00,-17.46"/>
    </edge>
    <edge id=":G1_2" function="internal">
        <lane id=":G1_2_0" index="0" speed="3.65" length="2.34" shape="607.20,101.60,-17.46 606.00,100.80,-17.46 605.60,100.00,-17.46"/>
    </edge>
    <edge id=":G1_9" function="internal">
        <lane id=":G1_9_0" index="0" speed="8.00" length="8.26" shape="601.60,100.00,-17.46 600.60,99.40,-17.46 598.95,96.65,-17.46 598.40,92.80,-17.46"/>
    </edge>
    <edge id=":G1_10" function="internal">
        <lane id=":G1_10_0" index="0" speed="3.65" length="2.34" shape="605.60,100.00,-17.46 606.00,99.20,-17.46 607.20,98.40,-17.46"/>
    </edge>
    <edge id=":G1_3" function="internal">
        <lane id=":G1_3_0" index="0" speed="6.51" length="9.03" shape="601.60,92.80,-17.46 601.95,95.25,-17.46 603.00,97.00,-17.46 604.75,98.05,-17.46 607.20,98.40,-17.46"/>
    </edge>
    <edge id=":G1_4" function="internal">
        <lane id=":G1_4_0" index="0" speed="8.00" length="14.19" shape="601.60,92.80,-17.46 601.05,96.65,-17.46 599.40,99.40,-17.46 596.65,101.05,-17.46 592.80,101.60,-17.46"/>
    </edge>
    <edge id=":G1_5" function="internal">
        <lane id=":G1_5_0" index="0" speed="3.65" length="4.67" shape="601.60,92.80,-17.46 600.80,94.00,-17.46 600.00,94.40,-17.46 599.20,94.00,-17.46 598.40,92.80,-17.46"/>
    </edge>
    <edge id=":G1_6" function="internal">
        <lane id=":G1_6_0" index="0" speed="6.51" length="9.03" shape="592.80,98.40,-17.46 595.25,98.05,-17.46 597.00,97.00,-17.46 598.05,95.25,-17.46 598.40,92.80,-17.46"/>
    </edge>
    <edge id=":G1_7" function="internal">
        <lane id=":G1_7_0" index="0" speed="100.00" length="14.40" shape="592.80,98.40,-17.46 607.20,98.40,-17.46"/>
    </edge>
    <edge id=":G1_8" function="internal">