<?xml version="1.0" encoding="UTF-8"?>

<!-- generated on 07/22/20 21:49:29 by Eclipse SUMO netgenerate Version 1.5.0
<configuration xmlns:xsi="http://www.w3.org/2001/XMLSchema-instance" xsi:noNamespaceSchemaLocation="http://sumo.dlr.de/xsd/netgenerateConfiguration.xsd">

    <grid_network>
        <grid value="true"/>
        <grid.x-number value="20"/>
        <grid.y-number value="2"/>
    </grid_network>

    <output>
        <output-file value="6.net.xml"/>
    </output>

    <processing>
        <perturb-x value="40"/>
        <perturb-z value="100"/>
    </processing>

    <random_number>
        <seed value="52335453"/>
    </random_number>

</configuration>
-->

<net version="1.3" junctionCornerDetail="5" limitTurnSpeed="5.50" xmlns:xsi="http://www.w3.org/2001/XMLSchema-instance" xsi:noNamespaceSchemaLocation="http://sumo.dlr.de/xsd/net_file.xsd">

    <location netOffset="84.03,0.00" convBoundary="0.00,0.00,1956.44,100.00" origBoundary="-84.03,0.00,1872.41,100.00" projParameter="!"/>

    <edge id=":A0_0" function="internal">
        <lane id=":A0_0_0" index="0" speed="6.33" length="21.08" shape="2.84,6.18,122.42 0.77,2.77,117.22 0.71,0.34,114.05 2.66,-1.11,110.88 6.61,-1.60,105.69"/>
    </edge>
    <edge id=":A0_1" function="internal">
        <lane id=":A0_1_0" index="0" speed="4.04" length="17.59" shape="6.61,1.60,105.35 5.29,1.76,110.65 4.64,2.25,113.89 4.66,3.06,117.12 5.35,4.19,122.42"/>
    </edge>
    <edge id=":A1_0" function="internal">
        <lane id=":A1_0_0" index="0" speed="6.45" length="5.67" shape="80.62,101.60,268.39 79.51,101.49,269.33 78.51,101.14,270.22 77.63,100.57,271.11 76.85,99.78,272.05"/>
    </edge>
    <edge id=":A1_1" function="internal">
        <lane id=":A1_1_0" index="0" speed="4.10" length="3.74" shape="79.36,97.79,272.05 79.62,98.06,271.17 79.92,98.25,270.33 80.25,98.36,269.49 80.62,98.40,268.60"/>
    </edge>
    <edge id=":B0_0" function="internal">
        <lane id=":B0_0_0" index="0" speed="6.96" length="9.61" shape="206.18,1.60,-140.48 203.76,1.98,-140.48 201.94,3.13,-140.48 200.71,5.03,-140.48 200.07,7.70,-140.48"/>
    </edge>
    <edge id=":B0_1" function="internal">
        <lane id=":B0_1_0" index="0" speed="13.89" length="14.44" shape="206.18,1.60,-140.48 191.74,1.60,-140.48"/>
    </edge>
    <edge id=":B0_2" function="internal">
        <lane id=":B0_2_0" index="0" speed="3.65" length="2.34" shape="206.18,1.60,-140.48 204.98,0.80,-140.48 204.58,0.00,-140.48"/>
    </edge>
    <edge id=":B0_9" function="internal">
        <lane id=":B0_9_0" index="0" speed="3.65" length="2.34" shape="204.58,0.00,-140.48 204.98,-0.80,-140.48 206.18,-1.60,-140.48"/>
    </edge>
    <edge id=":B0_3" function="internal">
        <lane id=":B0_3_0" index="0" speed="13.89" length="14.44" shape="191.74,-1.60,-140.48 206.18,-1.60,-140.48"/>
    </edge>
    <edge id=":B0_4" function="internal">
        <lane id=":B0_4_0" index="0" speed="7.82" length="5.96" shape="191.74,-1.60,-140.48 195.77,-1.02,-140.48 197.37,0.00,-140.48"/>
    </edge>
    <edge id=":B0_5" function="internal">
        <lane id=":B0_5_0" index="0" speed="3.65" length="2.34" shape="191.74,-1.60,-140.48 192.94,-0.80,-140.48 193.34,0.00,-140.48"/>
    </edge>
    <edge id=":B0_10" function="internal">
        <lane id=":B0_10_0" index="0" speed="7.82" length="8.66" shape="197.37,0.00,-140.48 198.50,0.73,-140.48 199.94,3.63,-140.48 200.07,7.70,-140.48"/>
    </edge>
    <edge id=":B0_11" function="internal">
        <lane id=":B0_11_0" index="0" speed="3.65" length="2.34" shape="193.34,0.00,-140.48 192.94,0.80,-140.48 191.74,1.60,-140.48"/>
    </edge>
    <edge id=":B0_6" function="internal">
        <lane id=":B0_6_0" index="0" speed="6.28" length="9.04" shape="196.89,7.35,-140.48 196.81,4.83,-140.48 195.92,3.04,-140.48 194.23,1.96,-140.48 191.74,1.60,-140.48"/>
    </edge>
    <edge id=":B0_7" function="internal">
        <lane id=":B0_7_0" index="0" speed="8.38" length="14.37" shape="196.89,7.35,-140.48 197.84,3.43,-140.48 199.71,0.64,-140.48 202.49,-1.04,-140.48 206.18,-1.60,-140.48"/>
    </edge>
    <edge id=":B0_8" function="internal">
        <lane id=":B0_8_0" index="0" speed="3.65" length="4.67" shape="196.89,7.35,-140.48 197.82,6.25,-140.48 198.66,5.94,-140.48 199.41,6.42,-140.48 200.07,7.70,-140.48"/>
    </edge>
    <edge id=":B1_0" function="internal">
        <lane id=":B1_0_0" index="0" speed="13.89" length="14.44" shape="195.88,101.60,-106.41 181.44,101.60,-106.41"/>
    </edge>
    <edge id=":B1_1" function="internal">
        <lane id=":B1_1_0" index="0" speed="7.82" length="5.96" shape="195.88,101.60,-106.41 191.85,101.02,-106.41 190.26,100.00,-106.41"/>
    </edge>
    <edge id=":B1_2" function="internal">
        <lane id=":B1_2_0" index="0" speed="3.65" length="2.34" shape="195.88,101.60,-106.41 194.68,100.80,-106.41 194.28,100.00,-106.41"/>
    </edge>
    <edge id=":B1_9" function="internal">
        <lane id=":B1_9_0" index="0" speed="7.82" length="8.66" shape="190.26,100.00,-106.41 189.12,99.27,-106.41 187.69,96.37,-106.41 187.55,92.30,-106.41"/>
    </edge>
    <edge id=":B1_10" function="internal">
        <lane id=":B1_10_0" index="0" speed="3.65" length="2.34" shape="194.28,100.00,-106.41 194.68,99.20,-106.41 195.88,98.40,-106.41"/>
    </edge>
    <edge id=":B1_3" function="internal">
        <lane id=":B1_3_0" index="0" speed="6.28" length="9.04" shape="190.73,92.65,-106.41 190.81,95.17,-106.41 191.70,96.96,-106.41 193.39,98.04,-106.41 195.88,98.40,-106.41"/>
    </edge>
    <edge id=":B1_4" function="internal">
        <lane id=":B1_4_0" index="0" speed="8.38" length="14.37" shape="190.73,92.65,-106.41 189.78,96.57,-106.41 187.92,99.36,-106.41 185.14,101.04,-106.41 181.44,101.60,-106.41"/>
    </edge>
    <edge id=":B1_5" function="internal">
        <lane id=":B1_5_0" index="0" speed="3.65" length="4.67" shape="190.73,92.65,-106.41 189.80,93.75,-106.41 188.96,94.06,-106.41 188.21,93.58,-106.41 187.55,92.30,-106.41"/>
    </edge>
    <edge id=":B1_6" function="internal">
        <lane id=":B1_6_0" index="0" speed="6.96" length="9.61" shape="181.44,98.40,-106.41 183.86,98.02,-106.41 185.69,96.87,-106.41 186.91,94.97,-106.41 187.55,92.30,-106.41"/>
    </edge>
    <edge id=":B1_7" function="internal">
        <lane id=":B1_7_0" index="0" speed="13.89" length="14.44" shape="181.44,98.40,-106.41 195.88,98.40,-106.41"/>
    </edge>
    <edge id=":B1_8" function="internal">
        <lane id=":B1_8_0" index="0" speed="3.65" length="2.34" shape="181.44,98.40,-106.41 182.64,99.20,-106.41 183.04,100.00,-106.41"/>
    </edge>
    <edge id=":B1_11" function="internal">
        <lane id=":B1_11_0" index="0" speed="3.65" length="2.34" shape="183.04,100.00,-106.41 182.64,100.80,-106.41 181.44,101.60,-106.41"/>
    </edge>
    <edge id=":C0_0" function="internal">
        <lane id=":C0_0_0" index="0" speed="7.44" length="10.19" shape="270.64,8.11,-5.74 269.71,5.26,-5.74 268.28,3.23,-5.74 266.37,2.01,-5.74 263.96,1.60,-5.74"/>
    </edge>
    <edge id=":C0_1" function="internal">
        <lane id=":C0_1_0" index="0" speed="7.68" length="15.05" shape="270.64,8.11,-5.74 270.36,3.86,-5.74 271.58,0.83,-5.74 274.29,-0.99,-5.74 278.51,-1.60,-5.74"/>
    </edge>
    <edge id=":C0_2" function="internal">
        <lane id=":C0_2_0" index="0" speed="3.65" length="4.67" shape="270.64,8.11,-5.74 271.18,6.77,-5.74 271.88,6.21,-5.74 272.74,6.44,-5.74 273.77,7.45,-5.74"/>
    </edge>
    <edge id=":C0_3" function="internal">
        <lane id=":C0_3_0" index="0" speed="6.10" length="9.06" shape="278.51,1.60,-5.74 275.97,1.97,-5.74 274.33,3.06,-5.74 273.60,4.89,-5.74 273.77,7.45,-5.74"/>
    </edge>
    <edge id=":C0_4" function="internal">
        <lane id=":C0_4_0" index="0" speed="13.89" length="14.54" shape="278.51,1.60,-5.74 263.96,1.60,-5.74"/>
    </edge>
    <edge id=":C0_5" function="internal">
        <lane id=":C0_5_0" index="0" speed="3.65" length="2.34" shape="278.51,1.60,-5.74 277.31,0.80,-5.74 276.91,0.00,-5.74"/>
    </edge>
    <edge id=":C0_9" function="internal">
        <lane id=":C0_9_0" index="0" speed="3.65" length="2.34" shape="276.91,0.00,-5.74 277.31,-0.80,-5.74 278.51,-1.60,-5.74"/>
    </edge>
    <edge id=":C0_6" function="internal">
        <lane id=":C0_6_0" index="0" speed="13.89" length="14.54" shape="263.96,-1.60,-5.74 278.51,-1.60,-5.74"/>
    </edge>
    <edge id=":C0_7" function="internal">
        <lane id=":C0_7_0" index="0" speed="8.80" length="5.63" shape="263.96,-1.60,-5.74 267.53,-1.03,-5.74 269.26,0.00,-5.74"/>
    </edge>
    <edge id=":C0_8" function="internal">
        <lane id=":C0_8_0" index="0" speed="3.65" length="2.34" shape="263.96,-1.60,-5.74 265.16,-0.80,-5.74 265.56,0.00,-5.74"/>
    </edge>
    <edge id=":C0_10" function="internal">
        <lane id=":C0_10_0" index="0" speed="8.80" length="8.97" shape="269.26,0.00,-5.74 270.36,0.66,-5.74 272.44,3.49,-5.74 273.77,7.45,-5.74"/>
    </edge>
    <edge id=":C0_11" function="internal">
        <lane id=":C0_11_0" index="0" speed="3.65" length="2.34" shape="265.56,0.00,-5.74 265.16,0.80,-5.74 263.96,1.60,-5.74"/>
    </edge>
    <edge id=":C1_0" function="internal">
        <lane id=":C1_0_0" index="0" speed="13.89" length="14.54" shape="298.42,101.60,36.65 283.87,101.60,36.65"/>
    </edge>
    <edge id=":C1_1" function="internal">
        <lane id=":C1_1_0" index="0" speed="8.80" length="5.63" shape="298.42,101.60,36.65 294.85,101.03,36.65 293.12,100.00,36.65"/>
    </edge>
    <edge id=":C1_2" function="internal">
        <lane id=":C1_2_0" index="0" speed="3.65" length="2.34" shape="298.42,101.60,36.65 297.22,100.80,36.65 296.82,100.00,36.65"/>
    </edge>
    <edge id=":C1_9" function="internal">
        <lane id=":C1_9_0" index="0" speed="8.80" length="8.97" shape="293.12,100.00,36.65 292.02,99.34,36.65 289.94,96.51,36.65 288.61,92.55,36.65"/>
    </edge>
    <edge id=":C1_10" function="internal">
        <lane id=":C1_10_0" index="0" speed="3.65" length="2.34" shape="296.82,100.00,36.65 297.22,99.20,36.65 298.42,98.40,36.65"/>
    </edge>
    <edge id=":C1_3" function="internal">
        <lane id=":C1_3_0" index="0" speed="7.44" length="10.19" shape="291.74,91.89,36.65 292.67,94.74,36.65 294.10,96.77,36.65 296.01,97.99,36.65 298.42,98.40,36.65"/>
    </edge>
    <edge id=":C1_4" function="internal">
        <lane id=":C1_4_0" index="0" speed="7.68" length="15.05" shape="291.74,91.89,36.65 292.02,96.14,36.65 290.80,99.17,36.65 288.09,100.99,36.65 283.87,101.60,36.65"/>
    </edge>
    <edge id=":C1_5" function="internal">
        <lane id=":C1_5_0" index="0" speed="3.65" length="4.67" shape="291.74,91.89,36.65 291.20,93.23,36.65 290.50,93.79,36.65 289.64,93.56,36.65 288.61,92.55,36.65"/>
    </edge>
    <edge id=":C1_6" function="internal">
        <lane id=":C1_6_0" index="0" speed="6.10" length="9.06" shape="283.87,98.40,36.65 286.41,98.03,36.65 288.05,96.94,36.65 288.78,95.11,36.65 288.61,92.55,36.65"/>
    </edge>
    <edge id=":C1_7" function="internal">
        <lane id=":C1_7_0" index="0" speed="13.89" length="14.54" shape="283.87,98.40,36.65 298.42,98.40,36.65"/>
    </edge>
    <edge id=":C1_8" function="internal">
        <lane id=":C1_8_0" index="0" speed="3.65" length="2.34" shape="283.87,98.40,36.65 285.07,99.20,36.65 285.47,100.00,36.65"/>
    </edge>
    <edge id=":C1_11" function="internal">
        <lane id=":C1_11_0" index="0" speed="3.65" length="2.34" shape="285.47,100.00,36.65 285.07,100.80,36.65 283.87,101.60,36.65"/>
    </edge>
    <edge id=":D0_0" function="internal">
        <lane id=":D0_0_0" index="0" speed="8.28" length="11.12" shape="380.42,8.62,-36.91 378.97,5.55,-36.91 377.20,3.35,-36.91 375.11,2.04,-36.91 372.71,1.60,-36.91"/>
    </edge>
    <edge id=":D0_1" function="internal">
        <lane id=":D0_1_0" index="0" speed="7.52" length="15.77" shape="380.42,8.62,-36.91 379.45,4.15,-36.91 380.31,0.95,-36.91 383.01,-0.96,-36.91 387.54,-1.60,-36.91"/>
    </edge>
    <edge id=":D0_2" function="internal">
        <lane id=":D0_2_0" index="0" speed="3.65" length="4.67" shape="380.42,8.62,-36.91 380.76,7.21,-36.91 381.37,6.56,-36.91 382.26,6.66,-36.91 383.42,7.51,-36.91"/>
    </edge>
    <edge id=":D0_3" function="internal">
        <lane id=":D0_3_0" index="0" speed="5.88" length="9.11" shape="387.54,1.60,-36.91 384.92,1.97,-36.91 383.36,3.08,-36.91 382.86,4.92,-36.91 383.42,7.51,-36.91"/>
    </edge>
    <edge id=":D0_4" function="internal">
        <lane id=":D0_4_0" index="0" speed="13.89" length="14.82" shape="387.54,1.60,-36.91 372.71,1.60,-36.91"/>
    </edge>
    <edge id=":D0_5" function="internal">
        <lane id=":D0_5_0" index="0" speed="3.65" length="2.34" shape="387.54,1.60,-36.91 386.34,0.80,-36.91 385.94,0.00,-36.91"/>
    </edge>
    <edge id=":D0_9" function="internal">
        <lane id=":D0_9_0" index="0" speed="3.65" length="2.34" shape="385.94,0.00,-36.91 386.34,-0.80,-36.91 387.54,-1.60,-36.91"/>
    </edge>
    <edge id=":D0_6" function="internal">
        <lane id=":D0_6_0" index="0" speed="13.89" length="14.82" shape="372.71,-1.60,-36.91 387.54,-1.60,-36.91"/>
    </edge>
    <edge id=":D0_7" function="internal">
        <lane id=":D0_7_0" index="0" speed="9.54" length="5.51" shape="372.71,-1.60,-36.91 376.13,-1.03,-36.91 377.90,-0.00,-36.91"/>
    </edge>
    <edge id=":D0_8" function="internal">
        <lane id=":D0_8_0" index="0" speed="3.65" length="2.34" shape="372.71,-1.60,-36.91 373.91,-0.80,-36.91 374.31,0.00,-36.91"/>
    </edge>
    <edge id=":D0_10" function="internal">
        <lane id=":D0_10_0" index="0" speed="9.54" length="9.51" shape="377.90,-0.00,-36.91 379.06,0.68,-36.91 381.49,3.52,-36.91 383.42,7.51,-36.91"/>
    </edge>
    <edge id=":D0_11" function="internal">
        <lane id=":D0_11_0" index="0" speed="3.65" length="2.34" shape="374.31,0.00,-36.91 373.91,0.80,-36.91 372.71,1.60,-36.91"/>
    </edge>
    <edge id=":D1_0" function="internal">
        <lane id=":D1_0_0" index="0" speed="13.89" length="14.82" shape="422.20,101.60,-7.00 407.38,101.60,-7.00"/>
    </edge>
    <edge id=":D1_1" function="internal">
        <lane id=":D1_1_0" index="0" speed="9.54" length="5.51" shape="422.20,101.60,-7.00 418.78,101.03,-7.00 417.01,100.00,-7.00"/>
    </edge>
    <edge id=":D1_2" function="internal">
        <lane id=":D1_2_0" index="0" speed="3.65" length="2.34" shape="422.20,101.60,-7.00 421.00,100.80,-7.00 420.60,100.00,-7.00"/>
    </edge>
    <edge id=":D1_9" function="internal">
        <lane id=":D1_9_0" index="0" speed="9.54" length="9.51" shape="417.01,100.00,-7.00 415.85,99.32,-7.00 413.42,96.48,-7.00 411.49,92.49,-7.00"/>
    </edge>
    <edge id=":D1_10" function="internal">
        <lane id=":D1_10_0" index="0" speed="3.65" length="2.34" shape="420.60,100.00,-7.00 421.00,99.20,-7.00 422.20,98.40,-7.00"/>
    </edge>
    <edge id=":D1_3" function="internal">
        <lane id=":D1_3_0" index="0" speed="8.28" length="11.12" shape="414.49,91.38,-7.00 415.95,94.45,-7.00 417.72,96.65,-7.00 419.80,97.96,-7.00 422.20,98.40,-7.00"/>
    </edge>
    <edge id=":D1_4" function="internal">
        <lane id=":D1_4_0" index="0" speed="7.52" length="15.77" shape="414.49,91.38,-7.00 415.46,95.85,-7.00 414.60,99.05,-7.00 411.91,100.96,-7.00 407.38,101.60,-7.00"/>
    </edge>
    <edge id=":D1_5" function="internal">
        <lane id=":D1_5_0" index="0" speed="3.65" length="4.67" shape="414.49,91.38,-7.00 414.16,92.79,-7.00 413.55,93.44,-7.00 412.66,93.34,-7.00 411.49,92.49,-7.00"/>
    </edge>
    <edge id=":D1_6" function="internal">
        <lane id=":D1_6_0" index="0" speed="5.88" length="9.11" shape="407.38,98.40,-7.00 410.00,98.03,-7.00 411.56,96.92,-7.00 412.05,95.08,-7.00 411.49,92.49,-7.00"/>
    </edge>
    <edge id=":D1_7" function="internal">
        <lane id=":D1_7_0" index="0" speed="13.89" length="14.82" shape="407.38,98.40,-7.00 422.20,98.40,-7.00"/>
    </edge>
    <edge id=":D1_8" function="internal">
        <lane id=":D1_8_0" index="0" speed="3.65" length="2.34" shape="407.38,98.40,-7.00 408.58,99.20,-7.00 408.98,100.00,-7.00"/>
    </edge>
    <edge id=":D1_11" function="internal">
        <lane id=":D1_11_0" index="0" speed="3.65" length="2.34" shape="408.98,100.00,-7.00 408.58,100.80,-7.00 407.38,101.60,-7.00"/>
    </edge>
    <edge id=":E0_0" function="internal">
        <lane id=":E0_0_0" index="0" speed="6.89" length="9.53" shape="477.04,7.63,69.20 476.45,4.99,69.20 475.25,3.11,69.20 473.44,1.98,69.20 471.02,1.60,69.20"/>
    </edge>
    <edge id=":E0_1" function="internal">
        <lane id=":E0_1_0" index="0" speed="7.84" length="14.56" shape="477.04,7.63,69.20 477.24,3.59,69.20 478.71,0.71,69.20 481.44,-1.02,69.20 485.45,-1.60,69.20"/>
    </edge>
    <edge id=":E0_2" function="internal">
        <lane id=":E0_2_0" index="0" speed="3.65" length="4.67" shape="477.04,7.63,69.20 477.73,6.36,69.20 478.49,5.89,69.20 479.32,6.21,69.20 480.23,7.33,69.20"/>
    </edge>
    <edge id=":E0_3" function="internal">
        <lane id=":E0_3_0" index="0" speed="6.31" length="9.04" shape="485.45,1.60,69.20 482.96,1.96,69.20 481.26,3.03,69.20 480.35,4.82,69.20 480.23,7.33,69.20"/>
    </edge>
    <edge id=":E0_4" function="internal">
        <lane id=":E0_4_0" index="0" speed="13.89" length="14.43" shape="485.45,1.60,69.20 471.02,1.60,69.20"/>
    </edge>
    <edge id=":E0_5" function="internal">
        <lane id=":E0_5_0" index="0" speed="3.65" length="2.34" shape="485.45,1.60,69.20 484.25,0.80,69.20 483.85,0.00,69.20"/>
    </edge>
    <edge id=":E0_9" function="internal">
        <lane id=":E0_9_0" index="0" speed="3.65" length="2.34" shape="483.85,0.00,69.20 484.25,-0.80,69.20 485.45,-1.60,69.20"/>
    </edge>
    <edge id=":E0_6" function="internal">
        <lane id=":E0_6_0" index="0" speed="13.89" length="14.43" shape="471.02,-1.60,69.20 485.45,-1.60,69.20"/>
    </edge>
    <edge id=":E0_7" function="internal">
        <lane id=":E0_7_0" index="0" speed="8.33" length="5.77" shape="471.02,-1.60,69.20 474.73,-1.04,69.20 476.46,0.00,69.20"/>
    </edge>
    <edge id=":E0_8" function="internal">
        <lane id=":E0_8_0" index="0" speed="3.65" length="2.34" shape="471.02,-1.60,69.20 472.22,-0.80,69.20 472.62,0.00,69.20"/>
    </edge>
    <edge id=":E0_10" function="internal">
        <lane id=":E0_10_0" index="0" speed="8.33" length="8.57" shape="476.46,0.00,69.20 477.50,0.63,69.20 479.34,3.42,69.20 480.23,7.33,69.20"/>
    </edge>
    <edge id=":E0_11" function="internal">
        <lane id=":E0_11_0" index="0" speed="3.65" length="2.34" shape="472.62,0.00,69.20 472.22,0.80,69.20 471.02,1.60,69.20"/>
    </edge>
    <edge id=":E1_0" function="internal">
        <lane id=":E1_0_0" index="0" speed="13.89" length="14.43" shape="494.27,101.60,-66.20 479.84,101.60,-66.20"/>
    </edge>
    <edge id=":E1_1" function="internal">
        <lane id=":E1_1_0" index="0" speed="8.33" length="5.77" shape="494.27,101.60,-66.20 490.55,101.04,-66.20 488.83,100.00,-66.20"/>
    </edge>
    <edge id=":E1_2" function="internal">
        <lane id=":E1_2_0" index="0" speed="3.65" length="2.34" shape="494.27,101.60,-66.20 493.07,100.80,-66.20 492.67,100.00,-66.20"/>
    </edge>
    <edge id=":E1_9" function="internal">
        <lane id=":E1_9_0" index="0" speed="8.33" length="8.57" shape="488.83,100.00,-66.20 487.78,99.37,-66.20 485.95,96.58,-66.20 485.06,92.67,-66.20"/>
    </edge>
    <edge id=":E1_10" function="internal">
        <lane id=":E1_10_0" index="0" speed="3.65" length="2.34" shape="492.67,100.00,-66.20 493.07,99.20,-66.20 494.27,98.40,-66.20"/>
    </edge>
    <edge id=":E1_3" function="internal">
        <lane id=":E1_3_0" index="0" speed="6.89" length="9.53" shape="488.24,92.37,-66.20 488.83,95.01,-66.20 490.03,96.89,-66.20 491.84,98.02,-66.20 494.27,98.40,-66.20"/>
    </edge>
    <edge id=":E1_4" function="internal">
        <lane id=":E1_4_0" index="0" speed="7.84" length="14.56" shape="488.24,92.37,-66.20 488.04,96.41,-66.20 486.58,99.29,-66.20 483.84,101.02,-66.20 479.84,101.60,-66.20"/>
    </edge>
    <edge id=":E1_5" function="internal">
        <lane id=":E1_5_0" index="0" speed="3.65" length="4.67" shape="488.24,92.37,-66.20 487.56,93.64,-66.20 486.80,94.11,-66.20 485.96,93.79,-66.20 485.06,92.67,-66.20"/>
    </edge>
    <edge id=":E1_6" function="internal">
        <lane id=":E1_6_0" index="0" speed="6.31" length="9.04" shape="479.84,98.40,-66.20 482.32,98.04,-66.20 484.02,96.97,-66.20 484.93,95.18,-66.20 485.06,92.67,-66.20"/>
    </edge>
    <edge id=":E1_7" function="internal">
        <lane id=":E1_7_0" index="0" speed="13.89" length="14.43" shape="479.84,98.40,-66.20 494.27,98.40,-66.20"/>
    </edge>
    <edge id=":E1_8" function="internal">
        <lane id=":E1_8_0" index="0" speed="3.65" length="2.34" shape="479.84,98.40,-66.20 481.04,99.20,-66.20 481.44,100.00,-66.20"/>
    </edge>
    <edge id=":E1_11" function="internal">
        <lane id=":E1_11_0" index="0" speed="3.65" length="2.34" shape="481.44,100.00,-66.20 481.04,100.80,-66.20 479.84,101.60,-66.20"/>
    </edge>
    <edge id=":F0_0" function="internal">
        <lane id=":F0_0_0" index="0" speed="7.48" length="10.24" shape="612.59,8.14,-21.75 611.63,5.28,-21.75 610.18,3.23,-21.75 608.26,2.01,-21.75 605.86,1.60,-21.75"/>
    </edge>
    <edge id=":F0_1" function="internal">
        <lane id=":F0_1_0" index="0" speed="7.67" length="15.09" shape="612.59,8.14,-21.75 612.27,3.88,-21.75 613.47,0.83,-21.75 616.18,-0.99,-21.75 620.41,-1.60,-21.75"/>
    </edge>
    <edge id=":F0_2" function="internal">
        <lane id=":F0_2_0" index="0" speed="3.65" length="4.67" shape="612.59,8.14,-21.75 613.11,6.80,-21.75 613.80,6.23,-21.75 614.67,6.45,-21.75 615.71,7.45,-21.75"/>
    </edge>
    <edge id=":F0_3" function="internal">
        <lane id=":F0_3_0" index="0" speed="6.09" length="9.06" shape="620.41,1.60,-21.75 617.87,1.97,-21.75 616.24,3.06,-21.75 615.52,4.89,-21.75 615.71,7.45,-21.75"/>
    </edge>
    <edge id=":F0_4" function="internal">
        <lane id=":F0_4_0" index="0" speed="13.89" length="14.55" shape="620.41,1.60,-21.75 605.86,1.60,-21.75"/>
    </edge>
    <edge id=":F0_5" function="internal">
        <lane id=":F0_5_0" index="0" speed="3.65" length="2.34" shape="620.41,1.60,-21.75 619.21,0.80,-21.75 618.81,0.00,-21.75"/>
    </edge>
    <edge id=":F0_9" function="internal">
        <lane id=":F0_9_0" index="0" speed="3.65" length="2.34" shape="618.81,0.00,-21.75 619.21,-0.80,-21.75 620.41,-1.60,-21.75"/>
    </edge>
    <edge id=":F0_6" function="internal">
        <lane id=":F0_6_0" index="0" speed="13.89" length="14.55" shape="605.86,-1.60,-21.75 620.41,-1.60,-21.75"/>
    </edge>
    <edge id=":F0_7" function="internal">
        <lane id=":F0_7_0" index="0" speed="8.83" length="5.62" shape="605.86,-1.60,-21.75 609.42,-1.03,-21.75 611.15,-0.00,-21.75"/>
    </edge>
    <edge id=":F0_8" function="internal">
        <lane id=":F0_8_0" index="0" speed="3.65" length="2.34" shape="605.86,-1.60,-21.75 607.06,-0.80,-21.75 607.46,0.00,-21.75"/>
    </edge>
    <edge id=":F0_10" function="internal">
        <lane id=":F0_10_0" index="0" speed="8.83" length="9.00" shape="611.15,-0.00,-21.75 612.25,0.66,-21.75 614.35,3.49,-21.75 615.71,7.45,-21.75"/>
    </edge>
    <edge id=":F0_11" function="internal">
        <lane id=":F0_11_0" index="0" speed="3.65" length="2.34" shape="607.46,0.00,-21.75 607.06,0.80,-21.75 605.86,1.60,-21.75"/>
    </edge>
    <edge id=":F1_0" function="internal">
        <lane id=":F1_0_0" index="0" speed="13.89" length="14.56" shape="641.04,101.60,-72.49 626.48,101.60,-72.14"/>
    </edge>
    <edge id=":F1_1" function="internal">
        <lane id=":F1_1_0" index="0" speed="8.83" length="5.62" shape="641.04,101.60,-72.49 637.48,101.03,-72.49 635.75,100.00,-72.49"/>
    </edge>
    <edge id=":F1_2" function="internal">
        <lane id=":F1_2_0" index="0" speed="3.65" length="2.34" shape="641.04,101.60,-72.49 639.84,100.80,-72.49 639.44,100.00,-72.49"/>
    </edge>
    <edge id=":F1_9" function="internal">
        <lane id=":F1_9_0" index="0" speed="8.83" length="9.00" shape="635.75,100.00,-72.49 634.65,99.34,-72.49 632.55,96.51,-72.49 631.19,92.55,-72.49"/>
    </edge>
    <edge id=":F1_10" function="internal">
        <lane id=":F1_10_0" index="0" speed="3.65" length="2.34" shape="639.44,100.00,-72.49 639.84,99.20,-72.49 641.04,98.40,-72.49"/>
    </edge>
    <edge id=":F1_3" function="internal">
        <lane id=":F1_3_0" index="0" speed="7.48" length="10.24" shape="634.31,91.86,-72.49 635.27,94.72,-72.49 636.71,96.77,-72.49 638.64,97.99,-72.49 641.04,98.40,-72.49"/>
    </edge>
    <edge id=":F1_4" function="internal">
        <lane id=":F1_4_0" index="0" speed="7.67" length="15.09" shape="634.31,91.86,-72.49 634.63,96.12,-72.40 633.43,99.17,-72.32 630.71,100.99,-72.24 626.48,101.60,-72.14"/>
    </edge>
    <edge id=":F1_5" function="internal">
        <lane id=":F1_5_0" index="0" speed="3.65" length="4.67" shape="634.31,91.86,-72.49 633.79,93.20,-72.49 633.09,93.77,-72.49 632.23,93.55,-72.49 631.19,92.55,-72.49"/>
    </edge>
    <edge id=":F1_6" function="internal">
        <lane id=":F1_6_0" index="0" speed="6.09" length="9.07" shape="626.48,98.40,-72.14 629.02,98.03,-72.24 630.66,96.94,-72.32 631.38,95.11,-72.39 631.19,92.55,-72.49"/>
    </edge>
    <edge id=":F1_7" function="internal">
        <lane id=":F1_7_0" index="0" speed="13.89" length="14.56" shape="626.48,98.40,-72.14 641.04,98.40,-72.49"/>
    </edge>
    <edge id=":F1_8" function="internal">
        <lane id=":F1_8_0" index="0" speed="3.65" length="2.34" shape="626.48,98.40,-72.14 627.68,99.20,-72.14 628.08,100.00,-72.14"/>
    </edge>
    <edge id=":F1_11" function="internal">
        <lane id=":F1_11_0" index="0" speed="3.65" length="2.34" shape="628.08,100.00,-72.14 627.68,100.80,-72.14 626.48,101.60,-72.14"/>
    </edge>
    <edge id=":G0_0" function="internal">
        <lane id=":G0_0_0" index="0" speed="8.88" length="11.75" shape="713.94,1.60,-19.10 711.54,2.05,-19.10 709.33,3.42,-19.10 707.31,5.69,-19.10 705.49,8.87,-19.10"/>
    </edge>
    <edge id=":G0_1" function="internal">
        <lane id=":G0_1_0" index="0" speed="13.89" length="15.08" shape="713.94,1.60,-19.10 698.86,1.60,-19.10"/>
    </edge>
    <edge id=":G0_2" function="internal">
        <lane id=":G0_2_0" index="0" speed="3.65" length="2.34" shape="713.94,1.60,-19.10 712.74,0.80,-19.10 712.34,0.00,-19.10"/>
    </edge>
    <edge id=":G0_9" function="internal">
        <lane id=":G0_9_0" index="0" speed="3.65" length="2.34" shape="712.34,0.00,-19.10 712.74,-0.80,-19.10 713.94,-1.60,-19.10"/>
    </edge>
    <edge id=":G0_3" function="internal">
        <lane id=":G0_3_0" index="0" speed="13.89" length="15.08" shape="698.86,-1.60,-19.10 713.94,-1.60,-19.10"/>
    </edge>
    <edge id=":G0_4" function="internal">
        <lane id=":G0_4_0" index="0" speed="7.45" length="6.41" shape="698.86,-1.60,-19.10 703.62,-0.95,-19.10 704.92,-0.00,-19.10"/>
    </edge>
    <edge id=":G0_5" function="internal">
        <lane id=":G0_5_0" index="0" speed="3.65" length="2.34" shape="698.86,-1.60,-19.10 700.06,-0.80,-19.10 700.46,0.00,-19.10"/>
    </edge>
    <edge id=":G0_10" function="internal">
        <lane id=":G0_10_0" index="0" speed="7.45" length="9.86" shape="704.92,-0.00,-19.10 706.31,1.02,-19.10 706.94,4.29,-19.10 705.49,8.87,-19.10"/>
    </edge>
    <edge id=":G0_11" function="internal">
        <lane id=":G0_11_0" index="0" speed="3.65" length="2.34" shape="700.46,0.00,-19.10 700.06,0.80,-19.10 698.86,1.60,-19.10"/>
    </edge>
    <edge id=":G0_6" function="internal">
        <lane id=":G0_6_0" index="0" speed="5.76" length="9.17" shape="702.60,7.50,-19.10 703.41,4.92,-19.10 703.06,3.08,-19.10 701.55,1.97,-19.10 698.86,1.60,-19.10"/>
    </edge>
    <edge id=":G0_7" function="internal">
        <lane id=":G0_7_0" index="0" speed="10.09" length="15.36" shape="702.60,7.50,-19.10 704.92,3.52,-19.10 707.59,0.68,-19.10 710.60,-1.03,-19.10 713.94,-1.60,-19.10"/>
    </edge>
    <edge id=":G0_8" function="internal">
        <lane id=":G0_8_0" index="0" speed="3.65" length="4.67" shape="702.60,7.50,-19.10 703.84,6.76,-19.10 704.73,6.74,-19.10 705.28,7.44,-19.10 705.49,8.87,-19.10"/>
    </edge>
    <edge id=":G1_0" function="internal">
        <lane id=":G1_0_0" index="0" speed="13.89" length="15.08" shape="669.68,101.60,235.23 654.60,101.60,235.23"/>
    </edge>
    <edge id=":G1_1" function="internal">
        <lane id=":G1_1_0" index="0" speed="7.45" length="6.41" shape="669.68,101.60,235.23 664.92,100.95,235.23 663.62,100.00,235.23"/>
    </edge>
    <edge id=":G1_2" function="internal">
        <lane id=":G1_2_0" index="0" speed="3.65" length="2.34" shape="669.68,101.60,235.23 668.48,100.80,235.23 668.08,100.00,235.23"/>
    </edge>
    <edge id=":G1_9" function="internal">
        <lane id=":G1_9_0" index="0" speed="7.45" length="9.86" shape="663.62,100.00,235.23 662.23,98.98,235.23 661.61,95.71,235.23 663.05,91.13,235.23"/>
    </edge>
    <edge id=":G1_10" function="internal">
        <lane id=":G1_10_0" index="0" speed="3.65" length="2.34" shape="668.08,100.00,235.23 668.48,99.20,235.23 669.68,98.40,235.23"/>
    </edge>
    <edge id=":G1_3" function="internal">
        <lane id=":G1_3_0" index="0" speed="5.76" length="9.17" shape="665.94,92.50,235.23 665.13,95.08,235.23 665.48,96.92,235.23 667.00,98.03,235.23 669.68,98.40,235.23"/>
    </edge>
    <edge id=":G1_4" function="internal">
        <lane id=":G1_4_0" index="0" speed="10.09" length="15.36" shape="665.94,92.50,235.23 663.62,96.48,235.23 660.95,99.32,235.23 657.95,101.03,235.23 654.60,101.60,235.23"/>
    </edge>
    <edge id=":G1_5" function="internal">
        <lane id=":G1_5_0" index="0" speed="3.65" length="4.67" shape="665.94,92.50,235.23 664.70,93.24,235.23 663.81,93.26,235.23 663.26,92.56,235.23 663.05,91.13,235.23"/>
    </edge>
    <edge id=":G1_6" function="internal">