<?xml version="1.0" encoding="UTF-8"?>

<!-- generated on 07/28/20 19:11:48 by Eclipse SUMO netgenerate Version 1.5.0
<configuration xmlns:xsi="http://www.w3.org/2001/XMLSchema-instance" xsi:noNamespaceSchemaLocation="http://sumo.dlr.de/xsd/netgenerateConfiguration.xsd">

    <grid_network>
        <grid value="true"/>
        <grid.x-number value="21"/>
        <grid.y-number value="2"/>
    </grid_network>

    <output>
        <output-file value="7.net.xml"/>
    </output>

    <processing>
        <perturb-z value="25"/>
    </processing>

    <building_defaults>
        <default.speed value="100"/>
    </building_defaults>

    <random_number>
        <seed value="8419726"/>
    </random_number>

</configuration>
-->

<net version="1.3" junctionCornerDetail="5" limitTurnSpeed="5.50" xmlns:xsi="http://www.w3.org/2001/XMLSchema-instance" xsi:noNamespaceSchemaLocation="http://sumo.dlr.de/xsd/net_file.xsd">

    <location netOffset="0.00,0.00" convBoundary="0.00,0.00,2000.00,100.00" origBoundary="0.00,0.00,2000.00,100.00" projParameter="!"/>

    <edge id=":A0_0" function="internal">
        <lane id=":A0_0_0" index="0" speed="6.08" length="7.74" shape="-1.60,3.20,-20.47 -1.30,1.10,-20.51 -0.40,-0.40,-20.55 1.10,-1.30,-20.58 3.20,-1.60,-20.63"/>
    </edge>
    <edge id=":A0_1" function="internal">
        <lane id=":A0_1_0" index="0" speed="3.90" length="2.58" shape="3.20,1.60,-20.59 2.50,1.70,-20.56 2.00,2.00,-20.53 1.70,2.50,-20.50 1.60,3.20,-20.47"/>
    </edge>
    <edge id=":A1_0" function="internal">
        <lane id=":A1_0_0" index="0" speed="6.08" length="7.76" shape="3.20,101.60,-3.07 1.10,101.30,-2.90 -0.40,100.40,-2.77 -1.30,98.90,-2.63 -1.60,96.80,-2.47"/>
    </edge>
    <edge id=":A1_1" function="internal">
        <lane id=":A1_1_0" index="0" speed="3.90" length="2.63" shape="1.60,96.80,-2.47 1.70,97.50,-2.61 2.00,98.00,-2.73 2.50,98.30,-2.84 3.20,98.40,-2.98"/>
    </edge>
    <edge id=":B0_0" function="internal">
        <lane id=":B0_0_0" index="0" speed="6.51" length="9.03" shape="98.40,7.20,-6.92 98.05,4.75,-6.92 97.00,3.00,-6.92 95.25,1.95,-6.92 92.80,1.60,-6.92"/>
    </edge>
    <edge id=":B0_1" function="internal">
        <lane id=":B0_1_0" index="0" speed="8.00" length="14.19" shape="98.40,7.20,-6.92 98.95,3.35,-6.92 100.60,0.60,-6.92 103.35,-1.05,-6.92 107.20,-1.60,-6.92"/>
    </edge>
    <edge id=":B0_2" function="internal">
        <lane id=":B0_2_0" index="0" speed="3.65" length="4.67" shape="98.40,7.20,-6.92 99.20,6.00,-6.92 100.00,5.60,-6.92 100.80,6.00,-6.92 101.60,7.20,-6.92"/>
    </edge>
    <edge id=":B0_3" function="internal">
        <lane id=":B0_3_0" index="0" speed="6.51" length="9.03" shape="107.20,1.60,-6.92 104.75,1.95,-6.92 103.00,3.00,-6.92 101.95,4.75,-6.92 101.60,7.20,-6.92"/>
    </edge>
    <edge id=":B0_4" function="internal">
        <lane id=":B0_4_0" index="0" speed="100.00" length="14.40" shape="107.20,1.60,-6.92 92.80,1.60,-6.92"/>
    </edge>
    <edge id=":B0_5" function="internal">
        <lane id=":B0_5_0" index="0" speed="3.65" length="2.34" shape="107.20,1.60,-6.92 106.00,0.80,-6.92 105.60,0.00,-6.92"/>
    </edge>
    <edge id=":B0_9" function="internal">
        <lane id=":B0_9_0" index="0" speed="3.65" length="2.34" shape="105.60,0.00,-6.92 106.00,-0.80,-6.92 107.20,-1.60,-6.92"/>
    </edge>
    <edge id=":B0_6" function="internal">
        <lane id=":B0_6_0" index="0" speed="100.00" length="14.40" shape="92.80,-1.60,-6.92 107.20,-1.60,-6.92"/>
    </edge>
    <edge id=":B0_7" function="internal">
        <lane id=":B0_7_0" index="0" speed="8.00" length="5.93" shape="92.80,-1.60,-6.92 96.65,-1.05,-6.92 98.40,-0.00,-6.92"/>
    </edge>
    <edge id=":B0_8" function="internal">
        <lane id=":B0_8_0" index="0" speed="3.65" length="2.34" shape="92.80,-1.60,-6.92 94.00,-0.80,-6.92 94.40,0.00,-6.92"/>
    </edge>
    <edge id=":B0_10" function="internal">
        <lane id=":B0_10_0" index="0" speed="8.00" length="8.26" shape="98.40,-0.00,-6.92 99.40,0.60,-6.92 101.05,3.35,-6.92 101.60,7.20,-6.92"/>
    </edge>
    <edge id=":B0_11" function="internal">
        <lane id=":B0_11_0" index="0" speed="3.65" length="2.34" shape="94.40,0.00,-6.92 94.00,0.80,-6.92 92.80,1.60,-6.92"/>
    </edge>
    <edge id=":B1_0" function="internal">
        <lane id=":B1_0_0" index="0" speed="100.00" length="14.40" shape="107.20,101.60,-36.98 92.80,101.60,-36.98"/>
    </edge>
    <edge id=":B1_1" function="internal">
        <lane id=":B1_1_0" index="0" speed="8.00" length="5.93" shape="107.20,101.60,-36.98 103.35,101.05,-36.98 101.60,100.00,-36.98"/>
    </edge>
    <edge id=":B1_2" function="internal">
        <lane id=":B1_2_0" index="0" speed="3.65" length="2.34" shape="107.20,101.60,-36.98 106.00,100.80,-36.98 105.60,100.00,-36.98"/>
    </edge>
    <edge id=":B1_9" function="internal">
        <lane id=":B1_9_0" index="0" speed="8.00" length="8.26" shape="101.60,100.00,-36.98 100.60,99.40,-36.98 98.95,96.65,-36.98 98.40,92.80,-36.98"/>
    </edge>
    <edge id=":B1_10" function="internal">
        <lane id=":B1_10_0" index="0" speed="3.65" length="2.34" shape="105.60,100.00,-36.98 106.00,99.20,-36.98 107.20,98.40,-36.98"/>
    </edge>
    <edge id=":B1_3" function="internal">
        <lane id=":B1_3_0" index="0" speed="6.51" length="9.03" shape="101.60,92.80,-36.98 101.95,95.25,-36.98 103.00,97.00,-36.98 104.75,98.05,-36.98 107.20,98.40,-36.98"/>
    </edge>
    <edge id=":B1_4" function="internal">
        <lane id=":B1_4_0" index="0" speed="8.00" length="14.19" shape="101.60,92.80,-36.98 101.05,96.65,-36.98 99.40,99.40,-36.98 96.65,101.05,-36.98 92.80,101.60,-36.98"/>
    </edge>
    <edge id=":B1_5" function="internal">
        <lane id=":B1_5_0" index="0" speed="3.65" length="4.67" shape="101.60,92.80,-36.98 100.80,94.00,-36.98 100.00,94.40,-36.98 99.20,94.00,-36.98 98.40,92.80,-36.98"/>
    </edge>
    <edge id=":B1_6" function="internal">
        <lane id=":B1_6_0" index="0" speed="6.51" length="9.03" shape="92.80,98.40,-36.98 95.25,98.05,-36.98 97.00,97.00,-36.98 98.05,95.25,-36.98 98.40,92.80,-36.98"/>
    </edge>
    <edge id=":B1_7" function="internal">
        <lane id=":B1_7_0" index="0" speed="100.00" length="14.40" shape="92.80,98.40,-36.98 107.20,98.40,-36.98"/>
    </edge>
    <edge id=":B1_8" function="internal">
        <lane id=":B1_8_0" index="0" speed="3.65" length="2.34" shape="92.80,98.40,-36.98 94.00,99.20,-36.98 94.40,100.00,-36.98"/>
    </edge>
    <edge id=":B1_11" function="internal">
        <lane id=":B1_11_0" index="0" speed="3.65" length="2.34" shape="94.40,100.00,-36.98 94.00,100.80,-36.98 92.80,101.60,-36.98"/>
    </edge>
    <edge id=":C0_0" function="internal">
        <lane id=":C0_0_0" index="0" speed="6.51" length="9.03" shape="198.40,7.20,-21.32 198.05,4.75,-21.34 197.00,3.00,-21.35 195.25,1.95,-21.36 192.80,1.60,-21.38"/>
    </edge>
    <edge id=":C0_1" function="internal">
        <lane id=":C0_1_0" index="0" speed="8.00" length="14.19" shape="198.40,7.20,-21.32 198.95,3.35,-21.34 200.60,0.60,-21.35 203.35,-1.05,-21.36 207.20,-1.60,-21.38"/>
    </edge>
    <edge id=":C0_2" function="internal">
        <lane id=":C0_2_0" index="0" speed="3.65" length="4.67" shape="198.40,7.20,-21.32 199.20,6.00,-21.32 200.00,5.60,-21.32 200.80,6.00,-21.32 201.60,7.20,-21.32"/>
    </edge>
    <edge id=":C0_3" function="internal">
        <lane id=":C0_3_0" index="0" speed="6.51" length="9.03" shape="207.20,1.60,-21.38 204.75,1.95,-21.36 203.00,3.00,-21.35 201.95,4.75,-21.34 201.60,7.20,-21.32"/>
    </edge>
    <edge id=":C0_4" function="internal">
        <lane id=":C0_4_0" index="0" speed="100.00" length="14.40" shape="207.20,1.60,-21.38 192.80,1.60,-21.38"/>
    </edge>
    <edge id=":C0_5" function="internal">
        <lane id=":C0_5_0" index="0" speed="3.65" length="2.34" shape="207.20,1.60,-21.38 206.00,0.80,-21.38 205.60,0.00,-21.38"/>
    </edge>
    <edge id=":C0_9" function="internal">
        <lane id=":C0_9_0" index="0" speed="3.65" length="2.34" shape="205.60,0.00,-21.38 206.00,-0.80,-21.38 207.20,-1.60,-21.38"/>
    </edge>
    <edge id=":C0_6" function="internal">
        <lane id=":C0_6_0" index="0" speed="100.00" length="14.40" shape="192.80,-1.60,-21.38 207.20,-1.60,-21.38"/>
    </edge>
    <edge id=":C0_7" function="internal">
        <lane id=":C0_7_0" index="0" speed="8.00" length="5.93" shape="192.80,-1.60,-21.38 196.65,-1.05,-21.36 198.40,-0.00,-21.36"/>
    </edge>
    <edge id=":C0_8" function="internal">
        <lane id=":C0_8_0" index="0" speed="3.65" length="2.34" shape="192.80,-1.60,-21.38 194.00,-0.80,-21.38 194.40,0.00,-21.38"/>
    </edge>
    <edge id=":C0_10" function="internal">
        <lane id=":C0_10_0" index="0" speed="8.00" length="8.26" shape="198.40,-0.00,-21.36 199.40,0.60,-21.35 201.05,3.35,-21.34 201.60,7.20,-21.32"/>
    </edge>
    <edge id=":C0_11" function="internal">
        <lane id=":C0_11_0" index="0" speed="3.65" length="2.34" shape="194.40,0.00,-21.38 194.00,0.80,-21.38 192.80,1.60,-21.38"/>
    </edge>
    <edge id=":C1_0" function="internal">
        <lane id=":C1_0_0" index="0" speed="100.00" length="14.40" shape="207.20,101.60,-20.51 192.80,101.60,-20.51"/>
    </edge>
    <edge id=":C1_1" function="internal">
        <lane id=":C1_1_0" index="0" speed="8.00" length="5.93" shape="207.20,101.60,-20.51 203.35,101.05,-20.52 201.60,100.00,-20.53"/>
    </edge>
    <edge id=":C1_2" function="internal">
        <lane id=":C1_2_0" index="0" speed="3.65" length="2.34" shape="207.20,101.60,-20.51 206.00,100.80,-20.51 205.60,100.00,-20.51"/>
    </edge>
    <edge id=":C1_9" function="internal">
        <lane id=":C1_9_0" index="0" speed="8.00" length="8.26" shape="201.60,100.00,-20.53 200.60,99.40,-20.54 198.95,96.65,-20.55 198.40,92.80,-20.57"/>
    </edge>
    <edge id=":C1_10" function="internal">
        <lane id=":C1_10_0" index="0" speed="3.65" length="2.34" shape="205.60,100.00,-20.51 206.00,99.20,-20.51 207.20,98.40,-20.51"/>
    </edge>
    <edge id=":C1_3" function="internal">
        <lane id=":C1_3_0" index="0" speed="6.51" length="9.03" shape="201.60,92.80,-20.57 201.95,95.25,-20.55 203.00,97.00,-20.54 204.75,98.05,-20.52 207.20,98.40,-20.51"/>
    </edge>
    <edge id=":C1_4" function="internal">
        <lane id=":C1_4_0" index="0" speed="8.00" length="14.19" shape="201.60,92.80,-20.57 201.05,96.65,-20.55 199.40,99.40,-20.54 196.65,101.05,-20.52 192.80,101.60,-20.51"/>
    </edge>
    <edge id=":C1_5" function="internal">
        <lane id=":C1_5_0" index="0" speed="3.65" length="4.67" shape="201.60,92.80,-20.57 200.80,94.00,-20.57 200.00,94.40,-20.57 199.20,94.00,-20.57 198.40,92.80,-20.57"/>
    </edge>
    <edge id=":C1_6" function="internal">
        <lane id=":C1_6_0" index="0" speed="6.51" length="9.03" shape="192.80,98.40,-20.51 195.25,98.05,-20.52 197.00,97.00,-20.54 198.05,95.25,-20.55 198.40,92.80,-20.57"/>
    </edge>
    <edge id=":C1_7" function="internal">
        <lane id=":C1_7_0" index="0" speed="100.00" length="14.40" shape="192.80,98.40,-20.51 207.20,98.40,-20.51"/>
    </edge>
    <edge id=":C1_8" function="internal">
        <lane id=":C1_8_0" index="0" speed="3.65" length="2.34" shape="192.80,98.40,-20.51 194.00,99.20,-20.51 194.40,100.00,-20.51"/>
    </edge>
    <edge id=":C1_11" function="internal">
        <lane id=":C1_11_0" index="0" speed="3.65" length="2.34" shape="194.40,100.00,-20.51 194.00,100.80,-20.51 192.80,101.60,-20.51"/>
    </edge>
    <edge id=":D0_0" function="internal">
        <lane id=":D0_0_0" index="0" speed="6.51" length="9.03" shape="298.40,7.20,70.89 298.05,4.75,70.89 297.00,3.00,70.89 295.25,1.95,70.89 292.80,1.60,70.89"/>
    </edge>
    <edge id=":D0_1" function="internal">
        <lane id=":D0_1_0" index="0" speed="8.00" length="14.19" shape="298.40,7.20,70.89 298.95,3.35,70.89 300.60,0.60,70.89 303.35,-1.05,70.89 307.20,-1.60,70.89"/>
    </edge>
    <edge id=":D0_2" function="internal">
        <lane id=":D0_2_0" index="0" speed="3.65" length="4.67" shape="298.40,7.20,70.89 299.20,6.00,70.89 300.00,5.60,70.89 300.80,6.00,70.89 301.60,7.20,70.89"/>
    </edge>
    <edge id=":D0_3" function="internal">
        <lane id=":D0_3_0" index="0" speed="6.51" length="9.03" shape="307.20,1.60,70.89 304.75,1.95,70.89 303.00,3.00,70.89 301.95,4.75,70.89 301.60,7.20,70.89"/>
    </edge>
    <edge id=":D0_4" function="internal">
        <lane id=":D0_4_0" index="0" speed="100.00" length="14.40" shape="307.20,1.60,70.89 292.80,1.60,70.89"/>
    </edge>
    <edge id=":D0_5" function="internal">
        <lane id=":D0_5_0" index="0" speed="3.65" length="2.34" shape="307.20,1.60,70.89 306.00,0.80,70.89 305.60,0.00,70.89"/>
    </edge>
    <edge id=":D0_9" function="internal">
        <lane id=":D0_9_0" index="0" speed="3.65" length="2.34" shape="305.60,0.00,70.89 306.00,-0.80,70.89 307.20,-1.60,70.89"/>
    </edge>
    <edge id=":D0_6" function="internal">
        <lane id=":D0_6_0" index="0" speed="100.00" length="14.40" shape="292.80,-1.60,70.89 307.20,-1.60,70.89"/>
    </edge>
    <edge id=":D0_7" function="internal">
        <lane id=":D0_7_0" index="0" speed="8.00" length="5.93" shape="292.80,-1.60,70.89 296.65,-1.05,70.89 298.40,-0.00,70.89"/>
    </edge>
    <edge id=":D0_8" function="internal">
        <lane id=":D0_8_0" index="0" speed="3.65" length="2.34" shape="292.80,-1.60,70.89 294.00,-0.80,70.89 294.40,0.00,70.89"/>
    </edge>
    <edge id=":D0_10" function="internal">
        <lane id=":D0_10_0" index="0" speed="8.00" length="8.26" shape="298.40,-0.00,70.89 299.40,0.60,70.89 301.05,3.35,70.89 301.60,7.20,70.89"/>
    </edge>
    <edge id=":D0_11" function="internal">
        <lane id=":D0_11_0" index="0" speed="3.65" length="2.34" shape="294.40,0.00,70.89 294.00,0.80,70.89 292.80,1.60,70.89"/>
    </edge>
    <edge id=":D1_0" function="internal">
        <lane id=":D1_0_0" index="0" speed="100.00" length="14.40" shape="307.20,101.60,21.80 292.80,101.60,21.80"/>
    </edge>
    <edge id=":D1_1" function="internal">
        <lane id=":D1_1_0" index="0" speed="8.00" length="5.93" shape="307.20,101.60,21.80 303.35,101.05,21.80 301.60,100.00,21.80"/>
    </edge>
    <edge id=":D1_2" function="internal">
        <lane id=":D1_2_0" index="0" speed="3.65" length="2.34" shape="307.20,101.60,21.80 306.00,100.80,21.80 305.60,100.00,21.80"/>
    </edge>
    <edge id=":D1_9" function="internal">
        <lane id=":D1_9_0" index="0" speed="8.00" length="8.26" shape="301.60,100.00,21.80 300.60,99.40,21.80 298.95,96.65,21.80 298.40,92.80,21.80"/>
    </edge>
    <edge id=":D1_10" function="internal">
        <lane id=":D1_10_0" index="0" speed="3.65" length="2.34" shape="305.60,100.00,21.80 306.00,99.20,21.80 307.20,98.40,21.80"/>
    </edge>
    <edge id=":D1_3" function="internal">
        <lane id=":D1_3_0" index="0" speed="6.51" length="9.03" shape="301.60,92.80,21.80 301.95,95.25,21.80 303.00,97.00,21.80 304.75,98.05,21.80 307.20,98.40,21.80"/>
    </edge>
    <edge id=":D1_4" function="internal">
        <lane id=":D1_4_0" index="0" speed="8.00" length="14.19" shape="301.60,92.80,21.80 301.05,96.65,21.80 299.40,99.40,21.80 296.65,101.05,21.80 292.80,101.60,21.80"/>
    </edge>
    <edge id=":D1_5" function="internal">
        <lane id=":D1_5_0" index="0" speed="3.65" length="4.67" shape="301.60,92.80,21.80 300.80,94.00,21.80 300.00,94.40,21.80 299.20,94.00,21.80 298.40,92.80,21.80"/>
    </edge>
    <edge id=":D1_6" function="internal">
        <lane id=":D1_6_0" index="0" speed="6.51" length="9.03" shape="292.80,98.40,21.80 295.25,98.05,21.80 297.00,97.00,21.80 298.05,95.25,21.80 298.40,92.80,21.80"/>
    </edge>
    <edge id=":D1_7" function="internal">
        <lane id=":D1_7_0" index="0" speed="100.00" length="14.40" shape="292.80,98.40,21.80 307.20,98.40,21.80"/>
    </edge>
    <edge id=":D1_8" function="internal">
        <lane id=":D1_8_0" index="0" speed="3.65" length="2.34" shape="292.80,98.40,21.80 294.00,99.20,21.80 294.40,100.00,21.80"/>
    </edge>
    <edge id=":D1_11" function="internal">
        <lane id=":D1_11_0" index="0" speed="3.65" length="2.34" shape="294.40,100.00,21.80 294.00,100.80,21.80 292.80,101.60,21.80"/>
    </edge>
    <edge id=":E0_0" function="internal">
        <lane id=":E0_0_0" index="0" speed="6.51" length="9.03" shape="398.40,7.20,-2.14 398.05,4.75,-2.14 397.00,3.00,-2.14 395.25,1.95,-2.14 392.80,1.60,-2.14"/>
    </edge>
    <edge id=":E0_1" function="internal">
        <lane id=":E0_1_0" index="0" speed="8.00" length="14.19" shape="398.40,7.20,-2.14 398.95,3.35,-2.14 400.60,0.60,-2.14 403.35,-1.05,-2.14 407.20,-1.60,-2.14"/>
    </edge>
    <edge id=":E0_2" function="internal">
        <lane id=":E0_2_0" index="0" speed="3.65" length="4.67" shape="398.40,7.20,-2.14 399.20,6.00,-2.14 400.00,5.60,-2.14 400.80,6.00,-2.14 401.60,7.20,-2.14"/>
    </edge>
    <edge id=":E0_3" function="internal">
        <lane id=":E0_3_0" index="0" speed="6.51" length="9.03" shape="407.20,1.60,-2.14 404.75,1.95,-2.14 403.00,3.00,-2.14 401.95,4.75,-2.14 401.60,7.20,-2.14"/>
    </edge>
    <edge id=":E0_4" function="internal">
        <lane id=":E0_4_0" index="0" speed="100.00" length="14.40" shape="407.20,1.60,-2.14 392.80,1.60,-2.14"/>
    </edge>
    <edge id=":E0_5" function="internal">
        <lane id=":E0_5_0" index="0" speed="3.65" length="2.34" shape="407.20,1.60,-2.14 406.00,0.80,-2.14 405.60,0.00,-2.14"/>
    </edge>
    <edge id=":E0_9" function="internal">
        <lane id=":E0_9_0" index="0" speed="3.65" length="2.34" shape="405.60,0.00,-2.14 406.00,-0.80,-2.14 407.20,-1.60,-2.14"/>
    </edge>
    <edge id=":E0_6" function="internal">
        <lane id=":E0_6_0" index="0" speed="100.00" length="14.40" shape="392.80,-1.60,-2.14 407.20,-1.60,-2.14"/>
    </edge>
    <edge id=":E0_7" function="internal">
        <lane id=":E0_7_0" index="0" speed="8.00" length="5.93" shape="392.80,-1.60,-2.14 396.65,-1.05,-2.14 398.40,-0.00,-2.14"/>
    </edge>
    <edge id=":E0_8" function="internal">
        <lane id=":E0_8_0" index="0" speed="3.65" length="2.34" shape="392.80,-1.60,-2.14 394.00,-0.80,-2.14 394.40,0.00,-2.14"/>
    </edge>
    <edge id=":E0_10" function="internal">
        <lane id=":E0_10_0" index="0" speed="8.00" length="8.26" shape="398.40,-0.00,-2.14 399.40,0.60,-2.14 401.05,3.35,-2.14 401.60,7.20,-2.14"/>
    </edge>
    <edge id=":E0_11" function="internal">
        <lane id=":E0_11_0" index="0" speed="3.65" length="2.34" shape="394.40,0.00,-2.14 394.00,0.80,-2.14 392.80,1.60,-2.14"/>
    </edge>
    <edge id=":E1_0" function="internal">
        <lane id=":E1_0_0" index="0" speed="100.00" length="14.40" shape="407.20,101.60,17.52 392.80,101.60,17.52"/>
    </edge>
    <edge id=":E1_1" function="internal">
        <lane id=":E1_1_0" index="0" speed="8.00" length="5.93" shape="407.20,101.60,17.52 403.35,101.05,17.52 401.60,100.00,17.52"/>
    </edge>
    <edge id=":E1_2" function="internal">
        <lane id=":E1_2_0" index="0" speed="3.65" length="2.34" shape="407.20,101.60,17.52 406.00,100.80,17.52 405.60,100.00,17.52"/>
    </edge>
    <edge id=":E1_9" function="internal">
        <lane id=":E1_9_0" index="0" speed="8.00" length="8.26" shape="401.60,100.00,17.52 400.60,99.40,17.52 398.95,96.65,17.52 398.40,92.80,17.52"/>
    </edge>
    <edge id=":E1_10" function="internal">
        <lane id=":E1_10_0" index="0" speed="3.65" length="2.34" shape="405.60,100.00,17.52 406.00,99.20,17.52 407.20,98.40,17.52"/>
    </edge>
    <edge id=":E1_3" function="internal">
        <lane id=":E1_3_0" index="0" speed="6.51" length="9.03" shape="401.60,92.80,17.52 401.95,95.25,17.52 403.00,97.00,17.52 404.75,98.05,17.52 407.20,98.40,17.52"/>
    </edge>
    <edge id=":E1_4" function="internal">
        <lane id=":E1_4_0" index="0" speed="8.00" length="14.19" shape="401.60,92.80,17.52 401.05,96.65,17.52 399.40,99.40,17.52 396.65,101.05,17.52 392.80,101.60,17.52"/>
    </edge>
    <edge id=":E1_5" function="internal">
        <lane id=":E1_5_0" index="0" speed="3.65" length="4.67" shape="401.60,92.80,17.52 400.80,94.00,17.52 400.00,94.40,17.52 399.20,94.00,17.52 398.40,92.80,17.52"/>
    </edge>
    <edge id=":E1_6" function="internal">
        <lane id=":E1_6_0" index="0" speed="6.51" length="9.03" shape="392.80,98.40,17.52 395.25,98.05,17.52 397.00,97.00,17.52 398.05,95.25,17.52 398.40,92.80,17.52"/>
    </edge>
    <edge id=":E1_7" function="internal">
        <lane id=":E1_7_0" index="0" speed="100.00" length="14.40" shape="392.80,98.40,17.52 407.20,98.40,17.52"/>
    </edge>
    <edge id=":E1_8" function="internal">
        <lane id=":E1_8_0" index="0" speed="3.65" length="2.34" shape="392.80,98.40,17.52 394.00,99.20,17.52 394.40,100.00,17.52"/>
    </edge>
    <edge id=":E1_11" function="internal">
        <lane id=":E1_11_0" index="0" speed="3.65" length="2.34" shape="394.40,100.00,17.52 394.00,100.80,17.52 392.80,101.60,17.52"/>
    </edge>
    <edge id=":F0_0" function="internal">
        <lane id=":F0_0_0" index="0" speed="6.51" length="9.03" shape="498.40,7.20,-24.00 498.05,4.75,-24.00 497.00,3.00,-24.00 495.25,1.95,-24.00 492.80,1.60,-24.00"/>
    </edge>
    <edge id=":F0_1" function="internal">
        <lane id=":F0_1_0" index="0" speed="8.00" length="14.19" shape="498.40,7.20,-24.00 498.95,3.35,-24.00 500.60,0.60,-24.00 503.35,-1.05,-24.00 507.20,-1.60,-24.00"/>
    </edge>
    <edge id=":F0_2" function="internal">
        <lane id=":F0_2_0" index="0" speed="3.65" length="4.67" shape="498.40,7.20,-24.00 499.20,6.00,-24.00 500.00,5.60,-24.00 500.80,6.00,-24.00 501.60,7.20,-24.00"/>
    </edge>
    <edge id=":F0_3" function="internal">
        <lane id=":F0_3_0" index="0" speed="6.51" length="9.03" shape="507.20,1.60,-24.00 504.75,1.95,-24.00 503.00,3.00,-24.00 501.95,4.75,-24.00 501.60,7.20,-24.00"/>
    </edge>
    <edge id=":F0_4" function="internal">
        <lane id=":F0_4_0" index="0" speed="100.00" length="14.40" shape="507.20,1.60,-24.00 492.80,1.60,-24.00"/>
    </edge>
    <edge id=":F0_5" function="internal">
        <lane id=":F0_5_0" index="0" speed="3.65" length="2.34" shape="507.20,1.60,-24.00 506.00,0.80,-24.00 505.60,0.00,-24.00"/>
    </edge>
    <edge id=":F0_9" function="internal">
        <lane id=":F0_9_0" index="0" speed="3.65" length="2.34" shape="505.60,0.00,-24.00 506.00,-0.80,-24.00 507.20,-1.60,-24.00"/>
    </edge>
    <edge id=":F0_6" function="internal">
        <lane id=":F0_6_0" index="0" speed="100.00" length="14.40" shape="492.80,-1.60,-24.00 507.20,-1.60,-24.00"/>
    </edge>
    <edge id=":F0_7" function="internal">
        <lane id=":F0_7_0" index="0" speed="8.00" length="5.93" shape="492.80,-1.60,-24.00 496.65,-1.05,-24.00 498.40,-0.00,-24.00"/>
    </edge>
    <edge id=":F0_8" function="internal">
        <lane id=":F0_8_0" index="0" speed="3.65" length="2.34" shape="492.80,-1.60,-24.00 494.00,-0.80,-24.00 494.40,0.00,-24.00"/>
    </edge>
    <edge id=":F0_10" function="internal">
        <lane id=":F0_10_0" index="0" speed="8.00" length="8.26" shape="498.40,-0.00,-24.00 499.40,0.60,-24.00 501.05,3.35,-24.00 501.60,7.20,-24.00"/>
    </edge>
    <edge id=":F0_11" function="internal">
        <lane id=":F0_11_0" index="0" speed="3.65" length="2.34" shape="494.40,0.00,-24.00 494.00,0.80,-24.00 492.80,1.60,-24.00"/>
    </edge>
    <edge id=":F1_0" function="internal">
        <lane id=":F1_0_0" index="0" speed="100.00" length="14.40" shape="507.20,101.60,-2.09 492.80,101.60,-2.09"/>
    </edge>
    <edge id=":F1_1" function="internal">
        <lane id=":F1_1_0" index="0" speed="8.00" length="5.93" shape="507.20,101.60,-2.09 503.35,101.05,-2.09 501.60,100.00,-2.09"/>
    </edge>
    <edge id=":F1_2" function="internal">
        <lane id=":F1_2_0" index="0" speed="3.65" length="2.34" shape="507.20,101.60,-2.09 506.00,100.80,-2.09 505.60,100.00,-2.09"/>
    </edge>
    <edge id=":F1_9" function="internal">
        <lane id=":F1_9_0" index="0" speed="8.00" length="8.26" shape="501.60,100.00,-2.09 500.60,99.40,-2.09 498.95,96.65,-2.09 498.40,92.80,-2.09"/>
    </edge>
    <edge id=":F1_10" function="internal">
        <lane id=":F1_10_0" index="0" speed="3.65" length="2.34" shape="505.60,100.00,-2.09 506.00,99.20,-2.09 507.20,98.40,-2.09"/>
    </edge>
    <edge id=":F1_3" function="internal">
        <lane id=":F1_3_0" index="0" speed="6.51" length="9.03" shape="501.60,92.80,-2.09 501.95,95.25,-2.09 503.00,97.00,-2.09 504.75,98.05,-2.09 507.20,98.40,-2.09"/>
    </edge>
    <edge id=":F1_4" function="internal">
        <lane id=":F1_4_0" index="0" speed="8.00" length="14.19" shape="501.60,92.80,-2.09 501.05,96.65,-2.09 499.40,99.40,-2.09 496.65,101.05,-2.09 492.80,101.60,-2.09"/>
    </edge>
    <edge id=":F1_5" function="internal">
        <lane id=":F1_5_0" index="0" speed="3.65" length="4.67" shape="501.60,92.80,-2.09 500.80,94.00,-2.09 500.00,94.40,-2.09 499.20,94.00,-2.09 498.40,92.80,-2.09"/>
    </edge>
    <edge id=":F1_6" function="internal">
        <lane id=":F1_6_0" index="0" speed="6.51" length="9.03" shape="492.80,98.40,-2.09 495.25,98.05,-2.09 497.00,97.00,-2.09 498.05,95.25,-2.09 498.40,92.80,-2.09"/>
    </edge>
    <edge id=":F1_7" function="internal">
        <lane id=":F1_7_0" index="0" speed="100.00" length="14.40" shape="492.80,98.40,-2.09 507.20,98.40,-2.09"/>
    </edge>
    <edge id=":F1_8" function="internal">
        <lane id=":F1_8_0" index="0" speed="3.65" length="2.34" shape="492.80,98.40,-2.09 494.00,99.20,-2.09 494.40,100.00,-2.09"/>
    </edge>
    <edge id=":F1_11" function="internal">
        <lane id=":F1_11_0" index="0" speed="3.65" length="2.34" shape="494.40,100.00,-2.09 494.00,100.80,-2.09 492.80,101.60,-2.09"/>
    </edge>
    <edge id=":G0_0" function="internal">
        <lane id=":G0_0_0" index="0" speed="6.51" length="9.03" shape="598.40,7.20,72.70 598.05,4.75,72.70 597.00,3.00,72.70 595.25,1.95,72.70 592.80,1.60,72.70"/>
    </edge>
    <edge id=":G0_1" function="internal">
        <lane id=":G0_1_0" index="0" speed="8.00" length="14.19" shape="598.40,7.20,72.70 598.95,3.35,72.70 600.60,0.60,72.70 603.35,-1.05,72.70 607.20,-1.60,72.70"/>
    </edge>
    <edge id=":G0_2" function="internal">
        <lane id=":G0_2_0" index="0" speed="3.65" length="4.67" shape="598.40,7.20,72.70 599.20,6.00,72.70 600.00,5.60,72.70 600.80,6.00,72.70 601.60,7.20,72.70"/>
    </edge>
    <edge id=":G0_3" function="internal">
        <lane id=":G0_3_0" index="0" speed="6.51" length="9.03" shape="607.20,1.60,72.70 604.75,1.95,72.70 603.00,3.00,72.70 601.95,4.75,72.70 601.60,7.20,72.70"/>
    </edge>
    <edge id=":G0_4" function="internal">
        <lane id=":G0_4_0" index="0" speed="100.00" length="14.40" shape="607.20,1.60,72.70 592.80,1.60,72.70"/>
    </edge>
    <edge id=":G0_5" function="internal">
        <lane id=":G0_5_0" index="0" speed="3.65" length="2.34" shape="607.20,1.60,72.70 606.00,0.80,72.70 605.60,0.00,72.70"/>
    </edge>
    <edge id=":G0_9" function="internal">
        <lane id=":G0_9_0" index="0" speed="3.65" length="2.34" shape="605.60,0.00,72.70 606.00,-0.80,72.70 607.20,-1.60,72.70"/>
    </edge>
    <edge id=":G0_6" function="internal">
        <lane id=":G0_6_0" index="0" speed="100.00" length="14.40" shape="592.80,-1.60,72.70 607.20,-1.60,72.70"/>
    </edge>
    <edge id=":G0_7" function="internal">
        <lane id=":G0_7_0" index="0" speed="8.00" length="5.93" shape="592.80,-1.60,72.70 596.65,-1.05,72.70 598.40,0.00,72.70"/>
    </edge>
    <edge id=":G0_8" function="internal">
        <lane id=":G0_8_0" index="0" speed="3.65" length="2.34" shape="592.80,-1.60,72.70 594.00,-0.80,72.70 594.40,0.00,72.70"/>
    </edge>
    <edge id=":G0_10" function="internal">
        <lane id=":G0_10_0" index="0" speed="8.00" length="8.26" shape="598.40,0.00,72.70 599.40,0.60,72.70 601.05,3.35,72.70 601.60,7.20,72.70"/>
    </edge>
    <edge id=":G0_11" function="internal">
        <lane id=":G0_11_0" index="0" speed="3.65" length="2.34" shape="594.40,0.00,72.70 594.00,0.80,72.70 592.80,1.60,72.70"/>
    </edge>
    <edge id=":G1_0" function="internal">
        <lane id=":G1_0_0" index="0" speed="100.00" length="14.40" shape="607.20,101.60,14.43 592.80,101.60,14.43"/>
    </edge>
    <edge id=":G1_1" function="internal">
        <lane id=":G1_1_0" index="0" speed="8.00" length="5.93" shape="607.20,101.60,14.43 603.35,101.05,14.43 601.60,100.00,14.43"/>
    </edge>
    <edge id=":G1_2" function="internal">
        <lane id=":G1_2_0" index="0" speed="3.65" length="2.34" shape="607.20,101.60,14.43 606.00,100.80,14.43 605.60,100.00,14.43"/>
    </edge>
    <edge id=":G1_9" function="internal">
        <lane id=":G1_9_0" index="0" speed="8.00" length="8.26" shape="601.60,100.00,14.43 600.60,99.40,14.43 598.95,96.65,14.43 598.40,92.80,14.43"/>
    </edge>
    <edge id=":G1_10" function="internal">
        <lane id=":G1_10_0" index="0" speed="3.65" length="2.34" shape="605.60,100.00,14.43 606.00,99.20,14.43 607.20,98.40,14.43"/>
    </edge>
    <edge id=":G1_3" function="internal">
        <lane id=":G1_3_0" index="0" speed="6.51" length="9.03" shape="601.60,92.80,14.43 601.95,95.25,14.43 603.00,97.00,14.43 604.75,98.05,14.43 607.20,98.40,14.43"/>
    </edge>
    <edge id=":G1_4" function="internal">
        <lane id=":G1_4_0" index="0" speed="8.00" length="14.19" shape="601.60,92.80,14.43 601.05,96.65,14.43 599.40,99.40,14.43 596.65,101.05,14.43 592.80,101.60,14.43"/>
    </edge>
    <edge id=":G1_5" function="internal">
        <lane id=":G1_5_0" index="0" speed="3.65" length="4.67" shape="601.60,92.80,14.43 600.80,94.00,14.43 600.00,94.40,14.43 599.20,94.00,14.43 598.40,92.80,14.43"/>
    </edge>
    <edge id=":G1_6" function="internal">
        <lane id=":G1_6_0" index="0" speed="6.51" length="9.03" shape="592.80,98.40,14.43 595.25,98.05,14.43 597.00,97.00,14.43 598.05,95.25,14.43 598.40,92.80,14.43"/>
    </edge>
    <edge id=":G1_7" function="internal">
        <lane id=":G1_7_0" index="0" speed="100.00" length="14.40" shape="592.80,98.40,14.43 607.20,98.40,14.43"/>
    </edge>
    <edge id=":G1_8" function="internal">