<?xml version="1.0" encoding="UTF-8"?>

<!-- generated on 07/22/20 21:49:32 by Eclipse SUMO netgenerate Version 1.5.0
<configuration xmlns:xsi="http://www.w3.org/2001/XMLSchema-instance" xsi:noNamespaceSchemaLocation="http://sumo.dlr.de/xsd/netgenerateConfiguration.xsd">

    <grid_network>
        <grid value="true"/>
        <grid.x-number value="20"/>
        <grid.y-number value="2"/>
    </grid_network>

    <output>
        <output-file value="7.net.xml"/>
    </output>

    <processing>
        <perturb-x value="40"/>
        <perturb-z value="100"/>
    </processing>

    <random_number>
        <seed value="77534646"/>
    </random_number>

</configuration>
-->

<net version="1.3" junctionCornerDetail="5" limitTurnSpeed="5.50" xmlns:xsi="http://www.w3.org/2001/XMLSchema-instance" xsi:noNamespaceSchemaLocation="http://sumo.dlr.de/xsd/net_file.xsd">

    <location netOffset="75.98,0.00" convBoundary="0.00,0.00,1905.17,100.00" origBoundary="-75.98,0.00,1829.19,100.00" projParameter="!"/>

    <edge id=":A0_0" function="internal">
        <lane id=":A0_0_0" index="0" speed="6.16" length="13.00" shape="0.90,5.36,87.75 -0.14,2.31,85.62 0.23,0.14,84.17 2.00,-1.17,82.71 5.19,-1.60,80.58"/>
    </edge>
    <edge id=":A0_1" function="internal">
        <lane id=":A0_1_0" index="0" speed="3.95" length="8.29" shape="5.19,1.60,80.29 4.13,1.74,82.50 3.54,2.18,84.02 3.41,2.90,85.54 3.76,3.92,87.75"/>
    </edge>
    <edge id=":A1_0" function="internal">
        <lane id=":A1_0_0" index="0" speed="6.26" length="6.02" shape="52.25,101.60,90.31 50.87,101.43,91.04 49.70,100.94,91.71 48.73,100.11,92.38 47.96,98.96,93.11"/>
    </edge>
    <edge id=":A1_1" function="internal">
        <lane id=":A1_1_0" index="0" speed="4.00" length="3.25" shape="50.82,97.52,93.11 51.08,97.90,92.40 51.40,98.18,91.75 51.79,98.34,91.10 52.25,98.40,90.39"/>
    </edge>
    <edge id=":B0_0" function="internal">
        <lane id=":B0_0_0" index="0" speed="10.16" length="12.95" shape="145.72,9.19,-100.84 143.20,5.87,-100.84 140.70,3.50,-100.84 138.24,2.07,-100.84 135.79,1.60,-100.84"/>
    </edge>
    <edge id=":B0_1" function="internal">
        <lane id=":B0_1_0" index="0" speed="7.38" length="17.29" shape="145.72,9.19,-100.84 143.38,4.47,-100.84 143.56,1.10,-100.84 146.26,-0.93,-100.84 151.49,-1.60,-100.84"/>
    </edge>
    <edge id=":B0_2" function="internal">
        <lane id=":B0_2_0" index="0" speed="3.65" length="4.67" shape="145.72,9.19,-100.84 145.72,7.75,-100.84 146.16,6.97,-100.84 147.05,6.86,-100.84 148.38,7.42,-100.84"/>
    </edge>
    <edge id=":B0_3" function="internal">
        <lane id=":B0_3_0" index="0" speed="5.60" length="9.32" shape="151.49,1.60,-100.84 148.67,1.96,-100.84 147.22,3.05,-100.84 147.12,4.87,-100.84 148.38,7.42,-100.84"/>
    </edge>
    <edge id=":B0_4" function="internal">
        <lane id=":B0_4_0" index="0" speed="13.89" length="15.70" shape="151.49,1.60,-100.84 135.79,1.60,-100.84"/>
    </edge>
    <edge id=":B0_5" function="internal">
        <lane id=":B0_5_0" index="0" speed="3.65" length="2.34" shape="151.49,1.60,-100.84 150.29,0.80,-100.84 149.89,0.00,-100.84"/>
    </edge>
    <edge id=":B0_9" function="internal">
        <lane id=":B0_9_0" index="0" speed="3.65" length="2.34" shape="149.89,0.00,-100.84 150.29,-0.80,-100.84 151.49,-1.60,-100.84"/>
    </edge>
    <edge id=":B0_6" function="internal">
        <lane id=":B0_6_0" index="0" speed="13.89" length="15.70" shape="135.79,-1.60,-100.84 151.49,-1.60,-100.84"/>
    </edge>
    <edge id=":B0_7" function="internal">
        <lane id=":B0_7_0" index="0" speed="11.28" length="5.51" shape="135.79,-1.60,-100.84 139.04,-1.04,-100.84 140.99,0.00,-100.84"/>
    </edge>
    <edge id=":B0_8" function="internal">
        <lane id=":B0_8_0" index="0" speed="3.65" length="2.34" shape="135.79,-1.60,-100.84 136.99,-0.80,-100.84 137.39,0.00,-100.84"/>
    </edge>
    <edge id=":B0_10" function="internal">
        <lane id=":B0_10_0" index="0" speed="11.28" length="10.57" shape="140.99,0.00,-100.84 142.22,0.65,-100.84 145.34,3.47,-100.84 148.38,7.42,-100.84"/>
    </edge>
    <edge id=":B0_11" function="internal">
        <lane id=":B0_11_0" index="0" speed="3.65" length="2.34" shape="137.39,0.00,-100.84 136.99,0.80,-100.84 135.79,1.60,-100.84"/>
    </edge>
    <edge id=":B1_0" function="internal">
        <lane id=":B1_0_0" index="0" speed="13.89" length="15.70" shape="213.97,101.60,-133.32 198.28,101.60,-133.32"/>
    </edge>
    <edge id=":B1_1" function="internal">
        <lane id=":B1_1_0" index="0" speed="11.28" length="5.51" shape="213.97,101.60,-133.32 210.72,101.04,-133.32 208.77,100.00,-133.32"/>
    </edge>
    <edge id=":B1_2" function="internal">
        <lane id=":B1_2_0" index="0" speed="3.65" length="2.34" shape="213.97,101.60,-133.32 212.77,100.80,-133.32 212.37,100.00,-133.32"/>
    </edge>
    <edge id=":B1_9" function="internal">
        <lane id=":B1_9_0" index="0" speed="11.28" length="10.57" shape="208.77,100.00,-133.32 207.54,99.35,-133.32 204.43,96.53,-133.32 201.39,92.58,-133.32"/>
    </edge>
    <edge id=":B1_10" function="internal">
        <lane id=":B1_10_0" index="0" speed="3.65" length="2.34" shape="212.37,100.00,-133.32 212.77,99.20,-133.32 213.97,98.40,-133.32"/>
    </edge>
    <edge id=":B1_3" function="internal">
        <lane id=":B1_3_0" index="0" speed="10.16" length="12.95" shape="204.05,90.81,-133.32 206.57,94.13,-133.32 209.06,96.50,-133.32 211.53,97.93,-133.32 213.97,98.40,-133.32"/>
    </edge>
    <edge id=":B1_4" function="internal">
        <lane id=":B1_4_0" index="0" speed="7.38" length="17.29" shape="204.05,90.81,-133.32 206.39,95.53,-133.32 206.21,98.90,-133.32 203.50,100.93,-133.32 198.28,101.60,-133.32"/>
    </edge>
    <edge id=":B1_5" function="internal">
        <lane id=":B1_5_0" index="0" speed="3.65" length="4.67" shape="204.05,90.81,-133.32 204.05,92.25,-133.32 203.61,93.03,-133.32 202.72,93.14,-133.32 201.39,92.58,-133.32"/>
    </edge>
    <edge id=":B1_6" function="internal">
        <lane id=":B1_6_0" index="0" speed="5.60" length="9.32" shape="198.28,98.40,-133.32 201.09,98.04,-133.32 202.55,96.95,-133.32 202.65,95.13,-133.32 201.39,92.58,-133.32"/>
    </edge>
    <edge id=":B1_7" function="internal">
        <lane id=":B1_7_0" index="0" speed="13.89" length="15.70" shape="198.28,98.40,-133.32 213.97,98.40,-133.32"/>
    </edge>
    <edge id=":B1_8" function="internal">
        <lane id=":B1_8_0" index="0" speed="3.65" length="2.34" shape="198.28,98.40,-133.32 199.48,99.20,-133.32 199.88,100.00,-133.32"/>
    </edge>
    <edge id=":B1_11" function="internal">
        <lane id=":B1_11_0" index="0" speed="3.65" length="2.34" shape="199.88,100.00,-133.32 199.48,100.80,-133.32 198.28,101.60,-133.32"/>
    </edge>
    <edge id=":C0_0" function="internal">
        <lane id=":C0_0_0" index="0" speed="6.64" length="9.21" shape="266.18,7.36,-162.61 265.75,4.84,-162.61 264.65,3.04,-162.61 262.88,1.96,-162.61 260.44,1.60,-162.61"/>
    </edge>
    <edge id=":C0_1" function="internal">
        <lane id=":C0_1_0" index="0" speed="7.94" length="14.32" shape="266.18,7.36,-162.61 266.61,3.44,-162.61 268.19,0.64,-162.61 270.94,-1.04,-162.61 274.84,-1.60,-162.61"/>
    </edge>
    <edge id=":C0_2" function="internal">
        <lane id=":C0_2_0" index="0" speed="3.65" length="4.67" shape="266.18,7.36,-162.61 266.94,6.13,-162.61 267.72,5.71,-162.61 268.54,6.08,-162.61 269.38,7.25,-162.61"/>
    </edge>
    <edge id=":C0_3" function="internal">
        <lane id=":C0_3_0" index="0" speed="6.43" length="9.03" shape="274.84,1.60,-162.61 272.38,1.95,-162.61 270.65,3.01,-162.61 269.65,4.78,-162.61 269.38,7.25,-162.61"/>
    </edge>
    <edge id=":C0_4" function="internal">
        <lane id=":C0_4_0" index="0" speed="13.89" length="14.40" shape="274.84,1.60,-162.61 260.44,1.60,-162.61"/>
    </edge>
    <edge id=":C0_5" function="internal">
        <lane id=":C0_5_0" index="0" speed="3.65" length="2.34" shape="274.84,1.60,-162.61 273.64,0.80,-162.61 273.24,0.00,-162.61"/>
    </edge>
    <edge id=":C0_9" function="internal">
        <lane id=":C0_9_0" index="0" speed="3.65" length="2.34" shape="273.24,0.00,-162.61 273.64,-0.80,-162.61 274.84,-1.60,-162.61"/>
    </edge>
    <edge id=":C0_6" function="internal">
        <lane id=":C0_6_0" index="0" speed="13.89" length="14.40" shape="260.44,-1.60,-162.61 274.84,-1.60,-162.61"/>
    </edge>
    <edge id=":C0_7" function="internal">
        <lane id=":C0_7_0" index="0" speed="8.11" length="5.87" shape="260.44,-1.60,-162.61 264.24,-1.05,-162.61 265.97,0.00,-162.61"/>
    </edge>
    <edge id=":C0_8" function="internal">
        <lane id=":C0_8_0" index="0" speed="3.65" length="2.34" shape="260.44,-1.60,-162.61 261.64,-0.80,-162.61 262.04,0.00,-162.61"/>
    </edge>
    <edge id=":C0_10" function="internal">
        <lane id=":C0_10_0" index="0" speed="8.11" length="8.37" shape="265.97,0.00,-162.61 266.99,0.61,-162.61 268.71,3.38,-162.61 269.38,7.25,-162.61"/>
    </edge>
    <edge id=":C0_11" function="internal">
        <lane id=":C0_11_0" index="0" speed="3.65" length="2.34" shape="262.04,0.00,-162.61 261.64,0.80,-162.61 260.44,1.60,-162.61"/>
    </edge>
    <edge id=":C1_0" function="internal">
        <lane id=":C1_0_0" index="0" speed="13.89" length="14.40" shape="278.02,101.60,84.28 263.62,101.60,84.28"/>
    </edge>
    <edge id=":C1_1" function="internal">
        <lane id=":C1_1_0" index="0" speed="8.11" length="5.87" shape="278.02,101.60,84.28 274.22,101.05,84.28 272.49,100.00,84.28"/>
    </edge>
    <edge id=":C1_2" function="internal">
        <lane id=":C1_2_0" index="0" speed="3.65" length="2.34" shape="278.02,101.60,84.28 276.82,100.80,84.28 276.42,100.00,84.28"/>
    </edge>
    <edge id=":C1_9" function="internal">
        <lane id=":C1_9_0" index="0" speed="8.11" length="8.37" shape="272.49,100.00,84.28 271.47,99.39,84.28 269.75,96.62,84.28 269.08,92.75,84.28"/>
    </edge>
    <edge id=":C1_10" function="internal">
        <lane id=":C1_10_0" index="0" speed="3.65" length="2.34" shape="276.42,100.00,84.28 276.82,99.20,84.28 278.02,98.40,84.28"/>
    </edge>
    <edge id=":C1_3" function="internal">
        <lane id=":C1_3_0" index="0" speed="6.64" length="9.21" shape="272.28,92.64,84.28 272.71,95.16,84.28 273.81,96.96,84.28 275.58,98.04,84.28 278.02,98.40,84.28"/>
    </edge>
    <edge id=":C1_4" function="internal">
        <lane id=":C1_4_0" index="0" speed="7.94" length="14.32" shape="272.28,92.64,84.28 271.85,96.56,84.28 270.27,99.36,84.28 267.52,101.04,84.28 263.62,101.60,84.28"/>
    </edge>
    <edge id=":C1_5" function="internal">
        <lane id=":C1_5_0" index="0" speed="3.65" length="4.67" shape="272.28,92.64,84.28 271.52,93.87,84.28 270.74,94.29,84.28 269.92,93.92,84.28 269.08,92.75,84.28"/>
    </edge>
    <edge id=":C1_6" function="internal">
        <lane id=":C1_6_0" index="0" speed="6.43" length="9.03" shape="263.62,98.40,84.28 266.08,98.05,84.28 267.81,96.99,84.28 268.81,95.22,84.28 269.08,92.75,84.28"/>
    </edge>
    <edge id=":C1_7" function="internal">
        <lane id=":C1_7_0" index="0" speed="13.89" length="14.40" shape="263.62,98.40,84.28 278.02,98.40,84.28"/>
    </edge>
    <edge id=":C1_8" function="internal">
        <lane id=":C1_8_0" index="0" speed="3.65" length="2.34" shape="263.62,98.40,84.28 264.82,99.20,84.28 265.22,100.00,84.28"/>
    </edge>
    <edge id=":C1_11" function="internal">
        <lane id=":C1_11_0" index="0" speed="3.65" length="2.34" shape="265.22,100.00,84.28 264.82,100.80,84.28 263.62,101.60,84.28"/>
    </edge>
    <edge id=":D0_0" function="internal">
        <lane id=":D0_0_0" index="0" speed="10.98" length="13.65" shape="350.13,9.31,-101.42 347.20,5.94,-101.42 344.42,3.53,-101.42 341.80,2.08,-101.42 339.33,1.60,-101.42"/>
    </edge>
    <edge id=":D0_1" function="internal">
        <lane id=":D0_1_0" index="0" speed="7.38" length="17.95" shape="350.13,9.31,-101.42 347.27,4.54,-101.42 347.20,1.13,-101.42 349.93,-0.92,-101.42 355.45,-1.60,-101.42"/>
    </edge>
    <edge id=":D0_2" function="internal">
        <lane id=":D0_2_0" index="0" speed="3.65" length="4.67" shape="350.13,9.31,-101.42 350.02,7.87,-101.42 350.41,7.06,-101.42 351.29,6.88,-101.42 352.65,7.34,-101.42"/>
    </edge>
    <edge id=":D0_3" function="internal">
        <lane id=":D0_3_0" index="0" speed="5.54" length="9.44" shape="355.45,1.60,-101.42 352.55,1.96,-101.42 351.11,3.03,-101.42 351.15,4.83,-101.42 352.65,7.34,-101.42"/>
    </edge>
    <edge id=":D0_4" function="internal">
        <lane id=":D0_4_0" index="0" speed="13.89" length="16.12" shape="355.45,1.60,-101.42 339.33,1.60,-101.42"/>
    </edge>
    <edge id=":D0_5" function="internal">
        <lane id=":D0_5_0" index="0" speed="3.65" length="2.34" shape="355.45,1.60,-101.42 354.25,0.80,-101.42 353.85,0.00,-101.42"/>
    </edge>
    <edge id=":D0_9" function="internal">
        <lane id=":D0_9_0" index="0" speed="3.65" length="2.34" shape="353.85,0.00,-101.42 354.25,-0.80,-101.42 355.45,-1.60,-101.42"/>
    </edge>
    <edge id=":D0_6" function="internal">
        <lane id=":D0_6_0" index="0" speed="13.89" length="16.12" shape="339.33,-1.60,-101.42 355.45,-1.60,-101.42"/>
    </edge>
    <edge id=":D0_7" function="internal">
        <lane id=":D0_7_0" index="0" speed="12.05" length="5.55" shape="339.33,-1.60,-101.42 342.54,-1.04,-101.42 344.59,-0.00,-101.42"/>
    </edge>
    <edge id=":D0_8" function="internal">
        <lane id=":D0_8_0" index="0" speed="3.65" length="2.34" shape="339.33,-1.60,-101.42 340.53,-0.80,-101.42 340.93,0.00,-101.42"/>
    </edge>
    <edge id=":D0_10" function="internal">
        <lane id=":D0_10_0" index="0" speed="12.05" length="10.99" shape="344.59,-0.00,-101.42 345.83,0.63,-101.42 349.20,3.43,-101.42 352.65,7.34,-101.42"/>
    </edge>
    <edge id=":D0_11" function="internal">
        <lane id=":D0_11_0" index="0" speed="3.65" length="2.34" shape="340.93,0.00,-101.42 340.53,0.80,-101.42 339.33,1.60,-101.42"/>
    </edge>
    <edge id=":D1_0" function="internal">
        <lane id=":D1_0_0" index="0" speed="13.89" length="16.12" shape="428.56,101.60,32.90 412.44,101.60,32.90"/>
    </edge>
    <edge id=":D1_1" function="internal">
        <lane id=":D1_1_0" index="0" speed="12.05" length="5.55" shape="428.56,101.60,32.90 425.35,101.04,32.90 423.30,100.00,32.90"/>
    </edge>
    <edge id=":D1_2" function="internal">
        <lane id=":D1_2_0" index="0" speed="3.65" length="2.34" shape="428.56,101.60,32.90 427.36,100.80,32.90 426.96,100.00,32.90"/>
    </edge>
    <edge id=":D1_9" function="internal">
        <lane id=":D1_9_0" index="0" speed="12.05" length="10.99" shape="423.30,100.00,32.90 422.06,99.37,32.90 418.69,96.57,32.90 415.24,92.66,32.90"/>
    </edge>
    <edge id=":D1_10" function="internal">
        <lane id=":D1_10_0" index="0" speed="3.65" length="2.34" shape="426.96,100.00,32.90 427.36,99.20,32.90 428.56,98.40,32.90"/>
    </edge>
    <edge id=":D1_3" function="internal">
        <lane id=":D1_3_0" index="0" speed="10.98" length="13.65" shape="417.76,90.69,32.90 420.69,94.06,32.90 423.47,96.47,32.90 426.09,97.92,32.90 428.56,98.40,32.90"/>
    </edge>
    <edge id=":D1_4" function="internal">
        <lane id=":D1_4_0" index="0" speed="7.38" length="17.95" shape="417.76,90.69,32.90 420.62,95.46,32.90 420.69,98.87,32.90 417.96,100.92,32.90 412.44,101.60,32.90"/>
    </edge>
    <edge id=":D1_5" function="internal">
        <lane id=":D1_5_0" index="0" speed="3.65" length="4.67" shape="417.76,90.69,32.90 417.87,92.13,32.90 417.48,92.94,32.90 416.61,93.12,32.90 415.24,92.66,32.90"/>
    </edge>
    <edge id=":D1_6" function="internal">
        <lane id=":D1_6_0" index="0" speed="5.54" length="9.44" shape="412.44,98.40,32.90 415.34,98.04,32.90 416.78,96.97,32.90 416.74,95.17,32.90 415.24,92.66,32.90"/>
    </edge>
    <edge id=":D1_7" function="internal">
        <lane id=":D1_7_0" index="0" speed="13.89" length="16.12" shape="412.44,98.40,32.90 428.56,98.40,32.90"/>
    </edge>
    <edge id=":D1_8" function="internal">
        <lane id=":D1_8_0" index="0" speed="3.65" length="2.34" shape="412.44,98.40,32.90 413.64,99.20,32.90 414.04,100.00,32.90"/>
    </edge>
    <edge id=":D1_11" function="internal">
        <lane id=":D1_11_0" index="0" speed="3.65" length="2.34" shape="414.04,100.00,32.90 413.64,100.80,32.90 412.44,101.60,32.90"/>
    </edge>
    <edge id=":E0_0" function="internal">
        <lane id=":E0_0_0" index="0" speed="13.89" length="21.29" shape="398.25,9.28,-3.99 393.98,7.14,-3.99 388.58,4.60,-3.99 383.07,2.49,-3.99 378.51,1.60,-3.99"/>
    </edge>
    <edge id=":E0_1" function="internal">
        <lane id=":E0_1_0" index="0" speed="6.26" length="15.29" shape="398.25,9.28,-3.99 395.43,6.41,-3.99 395.12,2.80,-3.99 397.01,-0.29,-3.99 400.82,-1.60,-3.99"/>
    </edge>
    <edge id=":E0_2" function="internal">
        <lane id=":E0_2_0" index="0" speed="3.65" length="4.67" shape="398.25,9.28,-3.99 397.53,8.03,-3.99 397.53,7.14,-3.99 398.25,6.60,-3.99 399.68,6.42,-3.99"/>
    </edge>
    <edge id=":E0_3" function="internal">
        <lane id=":E0_3_0" index="0" speed="5.60" length="11.85" shape="400.82,1.60,-3.99 396.70,1.90,-3.99 395.14,2.80,-3.99 396.14,4.31,-3.99 399.68,6.42,-3.99"/>
    </edge>
    <edge id=":E0_4" function="internal">
        <lane id=":E0_4_0" index="0" speed="13.89" length="22.31" shape="400.82,1.60,-3.99 378.51,1.60,-3.99"/>
    </edge>
    <edge id=":E0_5" function="internal">
        <lane id=":E0_5_0" index="0" speed="3.65" length="2.34" shape="400.82,1.60,-3.99 399.62,0.80,-3.99 399.22,0.00,-3.99"/>
    </edge>
    <edge id=":E0_9" function="internal">
        <lane id=":E0_9_0" index="0" speed="3.65" length="2.34" shape="399.22,0.00,-3.99 399.62,-0.80,-3.99 400.82,-1.60,-3.99"/>
    </edge>
    <edge id=":E0_6" function="internal">
        <lane id=":E0_6_0" index="0" speed="13.89" length="22.31" shape="378.51,-1.60,-3.99 400.82,-1.60,-3.99"/>
    </edge>
    <edge id=":E0_7" function="internal">
        <lane id=":E0_7_0" index="0" speed="13.89" length="6.78" shape="378.51,-1.60,-3.99 383.30,-0.66,-3.99 385.07,0.00,-3.99"/>
    </edge>
    <edge id=":E0_8" function="internal">
        <lane id=":E0_8_0" index="0" speed="3.65" length="2.34" shape="378.51,-1.60,-3.99 379.71,-0.80,-3.99 380.11,0.00,-3.99"/>
    </edge>
    <edge id=":E0_10" function="internal">
        <lane id=":E0_10_0" index="0" speed="13.89" length="15.97" shape="385.07,0.00,-3.99 389.29,1.57,-3.99 395.19,4.22,-3.99 399.68,6.42,-3.99"/>
    </edge>
    <edge id=":E0_11" function="internal">
        <lane id=":E0_11_0" index="0" speed="3.65" length="2.34" shape="380.11,0.00,-3.99 379.71,0.80,-3.99 378.51,1.60,-3.99"/>
    </edge>
    <edge id=":E1_0" function="internal">
        <lane id=":E1_0_0" index="0" speed="13.89" length="145.35" shape="586.52,101.60,-36.41 565.72,101.60,-180.26"/>
    </edge>
    <edge id=":E1_1" function="internal">
        <lane id=":E1_1_0" index="0" speed="13.89" length="6.40" shape="586.52,101.60,-36.41 585.60,101.41,-42.74"/>
    </edge>
    <edge id=":E1_2" function="internal">
        <lane id=":E1_2_0" index="0" speed="3.24" length="1.60" shape="586.52,101.60,-36.41 586.56,100.00,-36.41"/>
    </edge>
    <edge id=":E1_9" function="internal">
        <lane id=":E1_9_0" index="0" speed="13.89" length="139.03" shape="585.60,101.41,-42.74 581.96,100.66,-67.74 576.49,98.43,-107.59 571.11,95.78,-147.99 566.86,93.58,-180.26"/>
    </edge>
    <edge id=":E1_10" function="internal">
        <lane id=":E1_10_0" index="0" speed="3.24" length="1.60" shape="586.56,100.00,-36.41 586.61,98.40,-36.41"/>
    </edge>
    <edge id=":E1_3" function="internal">
        <lane id=":E1_3_0" index="0" speed="13.89" length="145.22" shape="568.29,90.72,-180.26 586.61,98.40,-36.41"/>
    </edge>
    <edge id=":E1_4" function="internal">
        <lane id=":E1_4_0" index="0" speed="6.26" length="15.29" shape="568.29,90.72,-180.26 571.10,93.59,-180.26 571.41,97.20,-180.26 569.52,100.29,-180.26 565.72,101.60,-180.26"/>
    </edge>
    <edge id=":E1_5" function="internal">
        <lane id=":E1_5_0" index="0" speed="3.65" length="4.67" shape="568.29,90.72,-180.26 569.00,91.97,-180.26 569.00,92.86,-180.26 568.29,93.40,-180.26 566.86,93.58,-180.26"/>
    </edge>
    <edge id=":E1_6" function="internal">
        <lane id=":E1_6_0" index="0" speed="5.60" length="11.85" shape="565.72,98.40,-180.26 569.83,98.10,-180.26 571.39,97.20,-180.26 570.40,95.69,-180.26 566.86,93.58,-180.26"/>
    </edge>
    <edge id=":E1_7" function="internal">
        <lane id=":E1_7_0" index="0" speed="13.89" length="145.36" shape="565.72,98.40,-180.26 586.61,98.40,-36.41"/>
    </edge>
    <edge id=":E1_8" function="internal">
        <lane id=":E1_8_0" index="0" speed="3.65" length="2.34" shape="565.72,98.40,-180.26 566.92,99.20,-180.26 567.32,100.00,-180.26"/>
    </edge>
    <edge id=":E1_11" function="internal">
        <lane id=":E1_11_0" index="0" speed="3.65" length="2.34" shape="567.32,100.00,-180.26 566.92,100.80,-180.26 565.72,101.60,-180.26"/>
    </edge>
    <edge id=":F0_0" function="internal">
        <lane id=":F0_0_0" index="0" speed="7.12" length="9.80" shape="577.98,7.84,-39.93 577.25,5.11,-39.93 575.96,3.16,-39.93 574.10,1.99,-39.93 571.69,1.60,-39.93"/>
    </edge>
    <edge id=":F0_1" function="internal">
        <lane id=":F0_1_0" index="0" speed="7.77" length="14.77" shape="577.98,7.84,-39.93 577.98,3.71,-39.93 579.34,0.76,-39.93 582.07,-1.01,-39.93 586.16,-1.60,-39.93"/>
    </edge>
    <edge id=":F0_2" function="internal">
        <lane id=":F0_2_0" index="0" speed="3.65" length="4.67" shape="577.98,7.84,-39.93 578.60,6.54,-39.93 579.33,6.03,-39.93 580.18,6.31,-39.93 581.14,7.39,-39.93"/>
    </edge>
    <edge id=":F0_3" function="internal">
        <lane id=":F0_3_0" index="0" speed="6.22" length="9.05" shape="586.16,1.60,-39.93 583.65,1.96,-39.93 581.98,3.05,-39.93 581.14,4.86,-39.93 581.14,7.39,-39.93"/>
    </edge>
    <edge id=":F0_4" function="internal">
        <lane id=":F0_4_0" index="0" speed="13.89" length="14.47" shape="586.16,1.60,-39.93 571.69,1.60,-39.93"/>
    </edge>
    <edge id=":F0_5" function="internal">
        <lane id=":F0_5_0" index="0" speed="3.65" length="2.34" shape="586.16,1.60,-39.93 584.96,0.80,-39.93 584.56,0.00,-39.93"/>
    </edge>
    <edge id=":F0_9" function="internal">
        <lane id=":F0_9_0" index="0" speed="3.65" length="2.34" shape="584.56,0.00,-39.93 584.96,-0.80,-39.93 586.16,-1.60,-39.93"/>
    </edge>
    <edge id=":F0_6" function="internal">
        <lane id=":F0_6_0" index="0" speed="13.89" length="14.47" shape="571.69,-1.60,-39.93 586.16,-1.60,-39.93"/>
    </edge>
    <edge id=":F0_7" function="internal">
        <lane id=":F0_7_0" index="0" speed="8.52" length="5.70" shape="571.69,-1.60,-39.93 575.34,-1.04,-39.93 577.06,0.00,-39.93"/>
    </edge>
    <edge id=":F0_8" function="internal">
        <lane id=":F0_8_0" index="0" speed="3.65" length="2.34" shape="571.69,-1.60,-39.93 572.89,-0.80,-39.93 573.29,0.00,-39.93"/>
    </edge>
    <edge id=":F0_10" function="internal">
        <lane id=":F0_10_0" index="0" speed="8.52" length="8.74" shape="577.06,0.00,-39.93 578.13,0.65,-39.93 580.07,3.46,-39.93 581.14,7.39,-39.93"/>
    </edge>
    <edge id=":F0_11" function="internal">
        <lane id=":F0_11_0" index="0" speed="3.65" length="2.34" shape="573.29,0.00,-39.93 572.89,0.80,-39.93 571.69,1.60,-39.93"/>
    </edge>
    <edge id=":F1_0" function="internal">
        <lane id=":F1_0_0" index="0" speed="7.48" length="144.49" shape="593.38,92.16,107.44 593.48,96.29,63.78 592.40,99.24,30.59 590.14,101.01,0.32 586.72,101.60,-36.41"/>
    </edge>
    <edge id=":F1_1" function="internal">
        <lane id=":F1_1_0" index="0" speed="6.72" length="18.74" shape="593.38,92.16,107.44 593.74,96.29,113.35 593.47,99.24,117.58 592.56,101.01,120.42 591.02,101.60,122.78"/>
    </edge>
    <edge id=":F1_2" function="internal">
        <lane id=":F1_2_0" index="0" speed="3.65" length="2.15" shape="593.38,92.16,107.44 592.76,93.46,107.44 592.18,93.86,107.44"/>
    </edge>
    <edge id=":F1_9" function="internal">
        <lane id=":F1_9_0" index="0" speed="3.65" length="2.52" shape="592.18,93.86,107.44 592.03,93.97,107.44 591.18,93.69,107.44 590.21,92.61,107.44"/>
    </edge>
    <edge id=":F1_3" function="internal">
        <lane id=":F1_3_0" index="0" speed="5.20" length="16.47" shape="591.02,98.40,122.78 591.34,97.63,120.66 591.05,95.88,116.08 590.54,93.93,110.93 590.21,92.61,107.44"/>
    </edge>
    <edge id=":F1_4" function="internal">
        <lane id=":F1_4_0" index="0" speed="3.83" length="159.28" shape="591.02,98.40,122.78 586.72,101.60,-36.41"/>
    </edge>
    <edge id=":F1_5" function="internal">
        <lane id=":F1_5_0" index="0" speed="3.65" length="0.97" shape="591.02,98.40,122.78 591.83,98.94,122.78"/>
    </edge>
    <edge id=":F1_10" function="internal">
        <lane id=":F1_10_0" index="0" speed="3.65" length="3.70" shape="591.83,98.94,122.78 592.22,99.20,122.78 592.62,100.00,122.78 592.22,100.80,122.78 591.02,101.60,122.78"/>
    </edge>
    <edge id=":F1_6" function="internal">
        <lane id=":F1_6_0" index="0" speed="3.85" length="159.29" shape="586.62,98.40,-36.41 591.02,101.60,122.78"/>
    </edge>
    <edge id=":F1_7" function="internal">
        <lane id=":F1_7_0" index="0" speed="5.50" length="144.01" shape="586.62,98.40,-36.41 590.21,92.61,107.44"/>
    </edge>
    <edge id=":F1_8" function="internal">
        <lane id=":F1_8_0" index="0" speed="3.24" length="3.20" shape="586.62,98.40,-36.41 586.72,101.60,-36.41"/>
    </edge>
    <edge id=":G0_0" function="internal">
        <lane id=":G0_0_0" index="0" speed="12.25" length="14.66" shape="689.20,1.60,-27.47 686.69,2.09,-27.47 683.85,3.55,-27.47 680.67,5.99,-27.47 677.16,9.40,-27.47"/>
    </edge>
    <edge id=":G0_1" function="internal">
        <lane id=":G0_1_0" index="0" speed="13.89" length="16.79" shape="689.20,1.60,-27.47 672.41,1.60,-27.47"/>
    </edge>
    <edge id=":G0_2" function="internal">
        <lane id=":G0_2_0" index="0" speed="3.65" length="2.34" shape="689.20,1.60,-27.47 688.00,0.80,-27.47 687.60,0.00,-27.47"/>
    </edge>
    <edge id=":G0_9" function="internal">
        <lane id=":G0_9_0" index="0" speed="3.65" length="2.34" shape="687.60,0.00,-27.47 688.00,-0.80,-27.47 689.20,-1.60,-27.47"/>
    </edge>
    <edge id=":G0_3" function="internal">
        <lane id=":G0_3_0" index="0" speed="13.89" length="16.79" shape="672.41,-1.60,-27.47 689.20,-1.60,-27.47"/>
    </edge>
    <edge id=":G0_4" function="internal">
        <lane id=":G0_4_0" index="0" speed="7.41" length="7.54" shape="672.41,-1.60,-27.47 678.38,-0.91,-27.47 679.61,-0.00,-27.47"/>
    </edge>
    <edge id=":G0_5" function="internal">
        <lane id=":G0_5_0" index="0" speed="3.65" length="2.34" shape="672.41,-1.60,-27.47 673.61,-0.80,-27.47 674.01,0.00,-27.47"/>
    </edge>
    <edge id=":G0_10" function="internal">
        <lane id=":G0_10_0" index="0" speed="7.41" length="11.40" shape="679.61,-0.00,-27.47 681.16,1.15,-27.47 680.75,4.59,-27.47 677.16,9.40,-27.47"/>
    </edge>
    <edge id=":G0_11" function="internal">
        <lane id=":G0_11_0" index="0" speed="3.65" length="2.34" shape="674.01,0.00,-27.47 673.61,0.80,-27.47 672.41,1.60,-27.47"/>
    </edge>
    <edge id=":G0_6" function="internal">
        <lane id=":G0_6_0" index="0" speed="5.49" length="9.65" shape="674.83,7.21,-27.47 676.66,4.75,-27.47 676.87,3.00,-27.47 675.45,1.95,-27.47 672.41,1.60,-27.47"/>
    </edge>
    <edge id=":G0_7" function="internal">
        <lane id=":G0_7_0" index="0" speed="13.26" length="17.25" shape="674.83,7.21,-27.47 678.84,3.35,-27.47 682.58,0.60,-27.47 686.03,-1.05,-27.47 689.20,-1.60,-27.47"/>
    </edge>
    <edge id=":G0_8" function="internal">
        <lane id=":G0_8_0" index="0" speed="3.65" length="4.67" shape="674.83,7.21,-27.47 676.24,6.88,-27.47 677.10,7.14,-27.47 677.40,7.98,-27.47 677.16,9.40,-27.47"/>
    </edge>
    <edge id=":G1_0" function="internal">
        <lane id=":G1_0_0" index="0" speed="6.28" length="6.75" shape="590.82,101.60,122.78 589.27,100.97,124.73 589.51,99.09,126.95 589.96,98.40,127.90"/>
    </edge>
    <edge id=":G1_1" function="internal">
        <lane id=":G1_1_0" index="0" speed="4.13" length="4.14" shape="590.82,101.60,122.78 592.26,100.81,126.58"/>
    </edge>
    <edge id=":G1_2" function="internal">
        <lane id=":G1_2_0" index="0" speed="3.65" length="2.34" shape="590.82,101.60,122.78 589.62,100.80,122.78 589.22,100.00,122.78"/>
    </edge>
    <edge id=":G1_9" function="internal">
        <lane id=":G1_9_0" index="0" speed="6.28" length="13.46" shape="589.96,98.40,127.90 591.55,95.95,131.32 595.38,91.55,138.12"/>
    </edge>
    <edge id=":G1_10" function="internal">
        <lane id=":G1_10_0" index="0" speed="4.13" length="12.58" shape="592.26,100.81,126.58 596.64,98.40,138.12"/>
    </edge>
    <edge id=":G1_11" function="internal">
        <lane id=":G1_11_0" index="0" speed="3.65" length="2.34" shape="589.22,100.00,122.78 589.62,99.20,122.78 590.82,98.40,122.78"/>
    </edge>
    <edge id=":G1_3" function="internal">
        <lane id=":G1_3_0" index="0" speed="3.86" length="3.95" shape="595.38,96.22,138.12 594.69,97.17,138.12 594.67,97.86,138.12 595.32,98.26,138.12 596.64,98.40,138.12"/>
    </edge>
    <edge id=":G1_4" function="internal">
        <lane id=":G1_4_0" index="0" speed="4.23" length="16.15" shape="595.38,96.22,138.12 590.82,98.40,122.78"/>
    </edge>
    <edge id=":G1_5" function="internal">
        <lane id=":G1_5_0" index="0" speed="4.17" length="1.48" shape="595.38,96.22,138.12 594.15,95.40,138.12"/>
    </edge>
    <edge id=":G1_12" function="internal">
        <lane id=":G1_12_0" index="0" speed="4.17" length="5.34" shape="594.15,95.40,138.12 593.63,95.06,138.12 593.05,93.89,138.12 593.63,92.72,138.12 595.38,91.55,138.12"/>
    </edge>
    <edge id=":G1_6" function="internal">