<?xml version="1.0" encoding="UTF-8"?>

<!-- generated on 07/22/20 22:23:41 by Eclipse SUMO netgenerate Version 1.5.0
<configuration xmlns:xsi="http://www.w3.org/2001/XMLSchema-instance" xsi:noNamespaceSchemaLocation="http://sumo.dlr.de/xsd/netgenerateConfiguration.xsd">

    <grid_network>
        <grid value="true"/>
        <grid.x-number value="20"/>
        <grid.y-number value="2"/>
    </grid_network>

    <output>
        <output-file value="7.net.xml"/>
    </output>

    <processing>
        <perturb-x value="23"/>
        <perturb-z value="100"/>
    </processing>

    <random_number>
        <seed value="8419726"/>
    </random_number>

</configuration>
-->

<net version="1.3" junctionCornerDetail="5" limitTurnSpeed="5.50" xmlns:xsi="http://www.w3.org/2001/XMLSchema-instance" xsi:noNamespaceSchemaLocation="http://sumo.dlr.de/xsd/net_file.xsd">

    <location netOffset="34.02,0.00" convBoundary="0.00,0.00,1957.50,100.00" origBoundary="-34.02,0.00,1923.47,100.00" projParameter="!"/>

    <edge id=":A0_0" function="internal">
        <lane id=":A0_0_0" index="0" speed="3.95" length="2.40" shape="34.64,1.60,-84.36 34.11,1.67,-84.02 33.68,1.88,-83.72 33.35,2.22,-83.41 33.12,2.71,-83.07"/>
    </edge>
    <edge id=":A0_1" function="internal">
        <lane id=":A0_1_0" index="0" speed="6.17" length="6.22" shape="30.07,1.72,-83.07 30.76,0.27,-83.41 31.75,-0.77,-83.72 33.05,-1.39,-84.02 34.64,-1.60,-84.36"/>
    </edge>
    <edge id=":A1_0" function="internal">
        <lane id=":A1_0_0" index="0" speed="6.10" length="15.25" shape="4.40,101.60,-18.29 1.64,101.21,-21.68 -0.04,100.03,-24.18 -0.65,98.07,-26.68 -0.17,95.32,-30.07"/>
    </edge>
    <edge id=":A1_1" function="internal">
        <lane id=":A1_1_0" index="0" speed="3.92" length="11.71" shape="2.87,96.31,-30.07 2.72,97.22,-26.83 2.92,97.88,-24.44 3.48,98.27,-22.06 4.40,98.40,-18.82"/>
    </edge>
    <edge id=":B0_0" function="internal">
        <lane id=":B0_0_0" index="0" speed="8.38" length="11.24" shape="116.81,8.67,-85.53 115.29,5.58,-85.50 113.47,3.37,-85.48 111.37,2.04,-85.46 108.97,1.60,-85.44"/>
    </edge>
    <edge id=":B0_1" function="internal">
        <lane id=":B0_1_0" index="0" speed="7.50" length="15.85" shape="116.81,8.67,-85.53 115.75,4.18,-85.53 116.57,0.97,-85.53 119.26,-0.96,-85.53 123.83,-1.60,-85.53"/>
    </edge>
    <edge id=":B0_2" function="internal">
        <lane id=":B0_2_0" index="0" speed="3.65" length="4.67" shape="116.81,8.67,-85.53 117.12,7.26,-85.53 117.72,6.60,-85.53 118.61,6.68,-85.53 119.79,7.51,-85.53"/>
    </edge>
    <edge id=":B0_3" function="internal">
        <lane id=":B0_3_0" index="0" speed="5.85" length="9.12" shape="123.83,1.60,-85.53 121.20,1.97,-85.53 119.65,3.08,-85.53 119.18,4.92,-85.53 119.79,7.51,-85.53"/>
    </edge>
    <edge id=":B0_4" function="internal">
        <lane id=":B0_4_0" index="0" speed="13.89" length="14.87" shape="123.83,1.60,-85.53 108.97,1.60,-85.44"/>
    </edge>
    <edge id=":B0_5" function="internal">
        <lane id=":B0_5_0" index="0" speed="3.65" length="2.34" shape="123.83,1.60,-85.53 122.63,0.80,-85.53 122.23,0.00,-85.53"/>
    </edge>
    <edge id=":B0_9" function="internal">
        <lane id=":B0_9_0" index="0" speed="3.65" length="2.34" shape="122.23,0.00,-85.53 122.63,-0.80,-85.53 123.83,-1.60,-85.53"/>
    </edge>
    <edge id=":B0_6" function="internal">
        <lane id=":B0_6_0" index="0" speed="13.89" length="14.87" shape="108.97,-1.60,-85.44 123.83,-1.60,-85.53"/>
    </edge>
    <edge id=":B0_7" function="internal">
        <lane id=":B0_7_0" index="0" speed="9.64" length="5.51" shape="108.97,-1.60,-85.44 112.37,-1.03,-85.46 114.15,-0.00,-85.47"/>
    </edge>
    <edge id=":B0_8" function="internal">
        <lane id=":B0_8_0" index="0" speed="3.65" length="2.34" shape="108.97,-1.60,-85.44 110.17,-0.80,-85.44 110.57,0.00,-85.44"/>
    </edge>
    <edge id=":B0_10" function="internal">
        <lane id=":B0_10_0" index="0" speed="9.64" length="9.58" shape="114.15,-0.00,-85.47 115.31,0.68,-85.48 117.79,3.52,-85.50 119.79,7.51,-85.53"/>
    </edge>
    <edge id=":B0_11" function="internal">
        <lane id=":B0_11_0" index="0" speed="3.65" length="2.34" shape="110.57,0.00,-85.44 110.17,0.80,-85.44 108.97,1.60,-85.44"/>
    </edge>
    <edge id=":B1_0" function="internal">
        <lane id=":B1_0_0" index="0" speed="13.89" length="14.87" shape="160.27,101.60,283.57 145.40,101.60,283.57"/>
    </edge>
    <edge id=":B1_1" function="internal">
        <lane id=":B1_1_0" index="0" speed="9.64" length="5.51" shape="160.27,101.60,283.57 156.86,101.03,283.57 155.08,100.00,283.57"/>
    </edge>
    <edge id=":B1_2" function="internal">
        <lane id=":B1_2_0" index="0" speed="3.65" length="2.34" shape="160.27,101.60,283.57 159.07,100.80,283.57 158.67,100.00,283.57"/>
    </edge>
    <edge id=":B1_9" function="internal">
        <lane id=":B1_9_0" index="0" speed="9.64" length="9.58" shape="155.08,100.00,283.57 153.92,99.32,283.57 151.44,96.48,283.57 149.44,92.49,283.57"/>
    </edge>
    <edge id=":B1_10" function="internal">
        <lane id=":B1_10_0" index="0" speed="3.65" length="2.34" shape="158.67,100.00,283.57 159.07,99.20,283.57 160.27,98.40,283.57"/>
    </edge>
    <edge id=":B1_3" function="internal">
        <lane id=":B1_3_0" index="0" speed="8.38" length="11.24" shape="152.42,91.33,283.57 153.94,94.42,283.57 155.76,96.63,283.57 157.86,97.96,283.57 160.27,98.40,283.57"/>
    </edge>
    <edge id=":B1_4" function="internal">
        <lane id=":B1_4_0" index="0" speed="7.50" length="15.85" shape="152.42,91.33,283.57 153.48,95.82,283.57 152.66,99.03,283.57 149.97,100.96,283.57 145.40,101.60,283.57"/>
    </edge>
    <edge id=":B1_5" function="internal">
        <lane id=":B1_5_0" index="0" speed="3.65" length="4.67" shape="152.42,91.33,283.57 152.11,92.74,283.57 151.51,93.40,283.57 150.62,93.32,283.57 149.44,92.49,283.57"/>
    </edge>
    <edge id=":B1_6" function="internal">
        <lane id=":B1_6_0" index="0" speed="5.85" length="9.12" shape="145.40,98.40,283.57 148.03,98.03,283.57 149.58,96.92,283.57 150.05,95.08,283.57 149.44,92.49,283.57"/>
    </edge>
    <edge id=":B1_7" function="internal">
        <lane id=":B1_7_0" index="0" speed="13.89" length="14.87" shape="145.40,98.40,283.57 160.27,98.40,283.57"/>
    </edge>
    <edge id=":B1_8" function="internal">
        <lane id=":B1_8_0" index="0" speed="3.65" length="2.34" shape="145.40,98.40,283.57 146.60,99.20,283.57 147.00,100.00,283.57"/>
    </edge>
    <edge id=":B1_11" function="internal">
        <lane id=":B1_11_0" index="0" speed="3.65" length="2.34" shape="147.00,100.00,283.57 146.60,100.80,283.57 145.40,101.60,283.57"/>
    </edge>
    <edge id=":C0_0" function="internal">
        <lane id=":C0_0_0" index="0" speed="7.29" length="10.01" shape="256.82,1.60,-8.56 254.41,2.00,-8.56 252.52,3.20,-8.56 251.16,5.19,-8.56 250.33,7.99,-8.56"/>
    </edge>
    <edge id=":C0_1" function="internal">
        <lane id=":C0_1_0" index="0" speed="13.89" length="14.50" shape="256.82,1.60,-8.56 242.31,1.60,-8.56"/>
    </edge>
    <edge id=":C0_2" function="internal">
        <lane id=":C0_2_0" index="0" speed="3.65" length="2.34" shape="256.82,1.60,-8.56 255.62,0.80,-8.56 255.22,0.00,-8.56"/>
    </edge>
    <edge id=":C0_9" function="internal">
        <lane id=":C0_9_0" index="0" speed="3.65" length="2.34" shape="255.22,0.00,-8.56 255.62,-0.80,-8.56 256.82,-1.60,-8.56"/>
    </edge>
    <edge id=":C0_3" function="internal">
        <lane id=":C0_3_0" index="0" speed="13.89" length="14.50" shape="242.31,-1.60,-8.56 256.82,-1.60,-8.56"/>
    </edge>
    <edge id=":C0_4" function="internal">
        <lane id=":C0_4_0" index="0" speed="7.72" length="6.01" shape="242.31,-1.60,-8.56 246.47,-1.00,-8.56 247.98,-0.00,-8.56"/>
    </edge>
    <edge id=":C0_5" function="internal">
        <lane id=":C0_5_0" index="0" speed="3.65" length="2.34" shape="242.31,-1.60,-8.56 243.51,-0.80,-8.56 243.91,0.00,-8.56"/>
    </edge>
    <edge id=":C0_10" function="internal">
        <lane id=":C0_10_0" index="0" speed="7.72" length="8.90" shape="247.98,-0.00,-8.56 249.19,0.80,-8.56 250.47,3.79,-8.56 250.33,7.99,-8.56"/>
    </edge>
    <edge id=":C0_11" function="internal">
        <lane id=":C0_11_0" index="0" speed="3.65" length="2.34" shape="243.91,0.00,-8.56 243.51,0.80,-8.56 242.31,1.60,-8.56"/>
    </edge>
    <edge id=":C0_6" function="internal">
        <lane id=":C0_6_0" index="0" speed="6.15" length="9.05" shape="247.18,7.42,-8.56 247.27,4.87,-8.56 246.49,3.06,-8.56 244.83,1.96,-8.56 242.31,1.60,-8.56"/>
    </edge>
    <edge id=":C0_7" function="internal">
        <lane id=":C0_7_0" index="0" speed="8.66" length="14.52" shape="247.18,7.42,-8.56 248.39,3.47,-8.56 250.40,0.66,-8.56 253.21,-1.04,-8.56 256.82,-1.60,-8.56"/>
    </edge>
    <edge id=":C0_8" function="internal">
        <lane id=":C0_8_0" index="0" speed="3.65" length="4.67" shape="247.18,7.42,-8.56 248.18,6.38,-8.56 249.04,6.13,-8.56 249.75,6.67,-8.56 250.33,7.99,-8.56"/>
    </edge>
    <edge id=":C1_0" function="internal">
        <lane id=":C1_0_0" index="0" speed="13.89" length="14.50" shape="239.93,101.60,-96.01 225.43,101.60,-96.01"/>
    </edge>
    <edge id=":C1_1" function="internal">
        <lane id=":C1_1_0" index="0" speed="7.72" length="6.01" shape="239.93,101.60,-96.01 235.78,101.00,-96.01 234.26,100.00,-96.01"/>
    </edge>
    <edge id=":C1_2" function="internal">
        <lane id=":C1_2_0" index="0" speed="3.65" length="2.34" shape="239.93,101.60,-96.01 238.73,100.80,-96.01 238.33,100.00,-96.01"/>
    </edge>
    <edge id=":C1_9" function="internal">
        <lane id=":C1_9_0" index="0" speed="7.72" length="8.90" shape="234.26,100.00,-96.01 233.06,99.20,-96.01 231.77,96.21,-96.01 231.92,92.01,-96.01"/>
    </edge>
    <edge id=":C1_10" function="internal">
        <lane id=":C1_10_0" index="0" speed="3.65" length="2.34" shape="238.33,100.00,-96.01 238.73,99.20,-96.01 239.93,98.40,-96.01"/>
    </edge>
    <edge id=":C1_3" function="internal">
        <lane id=":C1_3_0" index="0" speed="6.15" length="9.05" shape="235.07,92.58,-96.01 234.98,95.13,-96.01 235.76,96.94,-96.01 237.41,98.04,-96.01 239.93,98.40,-96.01"/>
    </edge>
    <edge id=":C1_4" function="internal">
        <lane id=":C1_4_0" index="0" speed="8.66" length="14.52" shape="235.07,92.58,-96.01 233.85,96.53,-96.01 231.84,99.34,-96.01 229.03,101.04,-96.01 225.43,101.60,-96.01"/>
    </edge>
    <edge id=":C1_5" function="internal">
        <lane id=":C1_5_0" index="0" speed="3.65" length="4.67" shape="235.07,92.58,-96.01 234.07,93.62,-96.01 233.21,93.87,-96.01 232.49,93.33,-96.01 231.92,92.01,-96.01"/>
    </edge>
    <edge id=":C1_6" function="internal">
        <lane id=":C1_6_0" index="0" speed="7.29" length="10.01" shape="225.43,98.40,-96.01 227.83,98.00,-96.01 229.72,96.80,-96.01 231.08,94.81,-96.01 231.92,92.01,-96.01"/>
    </edge>
    <edge id=":C1_7" function="internal">
        <lane id=":C1_7_0" index="0" speed="13.89" length="14.50" shape="225.43,98.40,-96.01 239.93,98.40,-96.01"/>
    </edge>
    <edge id=":C1_8" function="internal">
        <lane id=":C1_8_0" index="0" speed="3.65" length="2.34" shape="225.43,98.40,-96.01 226.63,99.20,-96.01 227.03,100.00,-96.01"/>
    </edge>
    <edge id=":C1_11" function="internal">
        <lane id=":C1_11_0" index="0" speed="3.65" length="2.34" shape="227.03,100.00,-96.01 226.63,100.80,-96.01 225.43,101.60,-96.01"/>
    </edge>
    <edge id=":D0_0" function="internal">
        <lane id=":D0_0_0" index="0" speed="6.65" length="9.22" shape="345.97,7.37,290.80 345.53,4.85,290.80 344.42,3.04,290.80 342.65,1.96,290.80 340.21,1.60,290.80"/>
    </edge>
    <edge id=":D0_1" function="internal">
        <lane id=":D0_1_0" index="0" speed="7.94" length="14.33" shape="345.97,7.37,290.80 346.38,3.45,290.80 347.96,0.64,290.80 350.71,-1.04,290.80 354.62,-1.60,290.80"/>
    </edge>
    <edge id=":D0_2" function="internal">
        <lane id=":D0_2_0" index="0" speed="3.65" length="4.67" shape="345.97,7.37,290.80 346.72,6.15,290.80 347.51,5.72,290.80 348.32,6.09,290.80 349.16,7.26,290.80"/>
    </edge>
    <edge id=":D0_3" function="internal">
        <lane id=":D0_3_0" index="0" speed="6.43" length="9.03" shape="354.62,1.60,290.80 352.15,1.95,290.80 350.42,3.01,290.80 349.43,4.78,290.80 349.16,7.26,290.80"/>
    </edge>
    <edge id=":D0_4" function="internal">
        <lane id=":D0_4_0" index="0" speed="13.89" length="14.40" shape="354.62,1.60,290.80 340.21,1.60,290.80"/>
    </edge>
    <edge id=":D0_5" function="internal">
        <lane id=":D0_5_0" index="0" speed="3.65" length="2.34" shape="354.62,1.60,290.80 353.42,0.80,290.80 353.02,0.00,290.80"/>
    </edge>
    <edge id=":D0_9" function="internal">
        <lane id=":D0_9_0" index="0" speed="3.65" length="2.34" shape="353.02,0.00,290.80 353.42,-0.80,290.80 354.62,-1.60,290.80"/>
    </edge>
    <edge id=":D0_6" function="internal">
        <lane id=":D0_6_0" index="0" speed="13.89" length="14.40" shape="340.21,-1.60,290.80 354.62,-1.60,290.80"/>
    </edge>
    <edge id=":D0_7" function="internal">
        <lane id=":D0_7_0" index="0" speed="8.12" length="5.86" shape="340.21,-1.60,290.80 344.01,-1.05,290.80 345.74,-0.00,290.80"/>
    </edge>
    <edge id=":D0_8" function="internal">
        <lane id=":D0_8_0" index="0" speed="3.65" length="2.34" shape="340.21,-1.60,290.80 341.41,-0.80,290.80 341.81,0.00,290.80"/>
    </edge>
    <edge id=":D0_10" function="internal">
        <lane id=":D0_10_0" index="0" speed="8.12" length="8.38" shape="345.74,-0.00,290.80 346.76,0.61,290.80 348.48,3.38,290.80 349.16,7.26,290.80"/>
    </edge>
    <edge id=":D0_11" function="internal">
        <lane id=":D0_11_0" index="0" speed="3.65" length="2.34" shape="341.81,0.00,290.80 341.41,0.80,290.80 340.21,1.60,290.80"/>
    </edge>
    <edge id=":D1_0" function="internal">
        <lane id=":D1_0_0" index="0" speed="13.89" length="14.40" shape="358.07,101.60,-11.74 343.67,101.60,-11.74"/>
    </edge>
    <edge id=":D1_1" function="internal">
        <lane id=":D1_1_0" index="0" speed="8.12" length="5.86" shape="358.07,101.60,-11.74 354.28,101.05,-11.74 352.54,100.00,-11.74"/>
    </edge>
    <edge id=":D1_2" function="internal">
        <lane id=":D1_2_0" index="0" speed="3.65" length="2.34" shape="358.07,101.60,-11.74 356.87,100.80,-11.74 356.47,100.00,-11.74"/>
    </edge>
    <edge id=":D1_9" function="internal">
        <lane id=":D1_9_0" index="0" speed="8.12" length="8.38" shape="352.54,100.00,-11.74 351.52,99.39,-11.74 349.80,96.62,-11.74 349.12,92.74,-11.74"/>
    </edge>
    <edge id=":D1_10" function="internal">
        <lane id=":D1_10_0" index="0" speed="3.65" length="2.34" shape="356.47,100.00,-11.74 356.87,99.20,-11.74 358.07,98.40,-11.74"/>
    </edge>
    <edge id=":D1_3" function="internal">
        <lane id=":D1_3_0" index="0" speed="6.65" length="9.22" shape="352.32,92.63,-11.74 352.76,95.15,-11.74 353.86,96.96,-11.74 355.63,98.04,-11.74 358.07,98.40,-11.74"/>
    </edge>
    <edge id=":D1_4" function="internal">
        <lane id=":D1_4_0" index="0" speed="7.94" length="14.33" shape="352.32,92.63,-11.74 351.90,96.55,-11.74 350.32,99.36,-11.74 347.58,101.04,-11.74 343.67,101.60,-11.74"/>
    </edge>
    <edge id=":D1_5" function="internal">
        <lane id=":D1_5_0" index="0" speed="3.65" length="4.67" shape="352.32,92.63,-11.74 351.56,93.85,-11.74 350.78,94.28,-11.74 349.96,93.91,-11.74 349.12,92.74,-11.74"/>
    </edge>
    <edge id=":D1_6" function="internal">
        <lane id=":D1_6_0" index="0" speed="6.43" length="9.03" shape="343.67,98.40,-11.74 346.13,98.05,-11.74 347.86,96.99,-11.74 348.86,95.22,-11.74 349.12,92.74,-11.74"/>
    </edge>
    <edge id=":D1_7" function="internal">
        <lane id=":D1_7_0" index="0" speed="13.89" length="14.40" shape="343.67,98.40,-11.74 358.07,98.40,-11.74"/>
    </edge>
    <edge id=":D1_8" function="internal">
        <lane id=":D1_8_0" index="0" speed="3.65" length="2.34" shape="343.67,98.40,-11.74 344.87,99.20,-11.74 345.27,100.00,-11.74"/>
    </edge>
    <edge id=":D1_11" function="internal">
        <lane id=":D1_11_0" index="0" speed="3.65" length="2.34" shape="345.27,100.00,-11.74 344.87,100.80,-11.74 343.67,101.60,-11.74"/>
    </edge>
    <edge id=":E0_0" function="internal">
        <lane id=":E0_0_0" index="0" speed="7.68" length="10.47" shape="451.27,1.60,-7.23 448.87,2.02,-7.23 446.90,3.27,-7.23 445.38,5.36,-7.23 444.29,8.28,-7.23"/>
    </edge>
    <edge id=":E0_1" function="internal">
        <lane id=":E0_1_0" index="0" speed="13.89" length="14.61" shape="451.27,1.60,-7.23 436.65,1.60,-7.23"/>
    </edge>
    <edge id=":E0_2" function="internal">
        <lane id=":E0_2_0" index="0" speed="3.65" length="2.34" shape="451.27,1.60,-7.23 450.07,0.80,-7.23 449.67,0.00,-7.23"/>
    </edge>
    <edge id=":E0_9" function="internal">
        <lane id=":E0_9_0" index="0" speed="3.65" length="2.34" shape="449.67,0.00,-7.23 450.07,-0.80,-7.23 451.27,-1.60,-7.23"/>
    </edge>
    <edge id=":E0_3" function="internal">
        <lane id=":E0_3_0" index="0" speed="13.89" length="14.61" shape="436.65,-1.60,-7.23 451.27,-1.60,-7.23"/>
    </edge>
    <edge id=":E0_4" function="internal">
        <lane id=":E0_4_0" index="0" speed="7.62" length="6.09" shape="436.65,-1.60,-7.23 440.96,-0.98,-7.23 442.39,0.00,-7.23"/>
    </edge>
    <edge id=":E0_5" function="internal">
        <lane id=":E0_5_0" index="0" speed="3.65" length="2.34" shape="436.65,-1.60,-7.23 437.85,-0.80,-7.23 438.25,0.00,-7.23"/>
    </edge>
    <edge id=":E0_10" function="internal">
        <lane id=":E0_10_0" index="0" speed="7.62" length="9.17" shape="442.39,0.00,-7.23 443.67,0.87,-7.23 444.78,3.96,-7.23 444.29,8.28,-7.23"/>
    </edge>
    <edge id=":E0_11" function="internal">
        <lane id=":E0_11_0" index="0" speed="3.65" length="2.34" shape="438.25,0.00,-7.23 437.85,0.80,-7.23 436.65,1.60,-7.23"/>
    </edge>
    <edge id=":E0_6" function="internal">
        <lane id=":E0_6_0" index="0" speed="6.03" length="9.07" shape="441.20,7.47,-7.23 441.48,4.90,-7.23 440.82,3.07,-7.23 439.21,1.97,-7.23 436.65,1.60,-7.23"/>
    </edge>
    <edge id=":E0_7" function="internal">
        <lane id=":E0_7_0" index="0" speed="9.01" length="14.71" shape="441.20,7.47,-7.23 442.71,3.50,-7.23 444.89,0.67,-7.23 447.74,-1.03,-7.23 451.27,-1.60,-7.23"/>
    </edge>
    <edge id=":E0_8" function="internal">
        <lane id=":E0_8_0" index="0" speed="3.65" length="4.67" shape="441.20,7.47,-7.23 442.27,6.51,-7.23 443.15,6.33,-7.23 443.82,6.92,-7.23 444.29,8.28,-7.23"/>
    </edge>
    <edge id=":E1_0" function="internal">
        <lane id=":E1_0_0" index="0" speed="13.89" length="20.14" shape="432.46,101.60,-19.13 412.33,101.60,-19.13"/>
    </edge>
    <edge id=":E1_1" function="internal">
        <lane id=":E1_1_0" index="0" speed="8.57" length="9.30" shape="432.46,101.60,-19.13 425.74,100.98,-19.13 423.39,100.00,-19.13"/>
    </edge>
    <edge id=":E1_2" function="internal">
        <lane id=":E1_2_0" index="0" speed="3.65" length="2.34" shape="432.46,101.60,-19.13 431.26,100.80,-19.13 430.86,100.00,-19.13"/>
    </edge>
    <edge id=":E1_9" function="internal">
        <lane id=":E1_9_0" index="0" speed="8.57" length="10.34" shape="423.39,100.00,-19.13 421.31,99.13,-19.13 419.16,96.04,-19.13 419.30,91.72,-19.13"/>
    </edge>
    <edge id=":E1_10" function="internal">
        <lane id=":E1_10_0" index="0" speed="3.65" length="2.34" shape="430.86,100.00,-19.13 431.26,99.20,-19.13 432.46,98.40,-19.13"/>
    </edge>
    <edge id=":E1_3" function="internal">
        <lane id=":E1_3_0" index="0" speed="7.22" length="13.57" shape="422.40,92.53,-19.13 422.45,95.10,-19.13 424.15,96.93,-19.13 427.49,98.03,-19.13 432.46,98.40,-19.13"/>
    </edge>
    <edge id=":E1_4" function="internal">
        <lane id=":E1_4_0" index="0" speed="9.01" length="14.71" shape="422.40,92.53,-19.13 420.88,96.50,-19.13 418.70,99.33,-19.13 415.85,101.03,-19.13 412.33,101.60,-19.13"/>
    </edge>
    <edge id=":E1_5" function="internal">
        <lane id=":E1_5_0" index="0" speed="3.65" length="4.67" shape="422.40,92.53,-19.13 421.32,93.49,-19.13 420.45,93.67,-19.13 419.77,93.08,-19.13 419.30,91.72,-19.13"/>
    </edge>
    <edge id=":E1_6" function="internal">
        <lane id=":E1_6_0" index="0" speed="7.68" length="10.47" shape="412.33,98.40,-19.13 414.73,97.98,-19.13 416.69,96.73,-19.13 418.21,94.64,-19.13 419.30,91.72,-19.13"/>
    </edge>
    <edge id=":E1_7" function="internal">
        <lane id=":E1_7_0" index="0" speed="13.89" length="20.14" shape="412.33,98.40,-19.13 432.46,98.40,-19.13"/>
    </edge>
    <edge id=":E1_8" function="internal">
        <lane id=":E1_8_0" index="0" speed="3.65" length="2.34" shape="412.33,98.40,-19.13 413.53,99.20,-19.13 413.93,100.00,-19.13"/>
    </edge>
    <edge id=":E1_11" function="internal">
        <lane id=":E1_11_0" index="0" speed="3.65" length="2.34" shape="413.93,100.00,-19.13 413.53,100.80,-19.13 412.33,101.60,-19.13"/>
    </edge>
    <edge id=":F0_0" function="internal">
        <lane id=":F0_0_0" index="0" speed="9.60" length="12.44" shape="555.28,1.60,-0.17 552.85,2.07,-0.17 550.49,3.47,-0.17 548.20,5.81,-0.17 545.98,9.08,-0.17"/>
    </edge>
    <edge id=":F0_1" function="internal">
        <lane id=":F0_1_0" index="0" speed="13.89" length="15.42" shape="555.28,1.60,-0.17 539.86,1.60,-0.17"/>
    </edge>
    <edge id=":F0_2" function="internal">
        <lane id=":F0_2_0" index="0" speed="3.65" length="2.34" shape="555.28,1.60,-0.17 554.08,0.80,-0.17 553.68,0.00,-0.17"/>
    </edge>
    <edge id=":F0_9" function="internal">
        <lane id=":F0_9_0" index="0" speed="3.65" length="2.34" shape="553.68,0.00,-0.17 554.08,-0.80,-0.17 555.28,-1.60,-0.17"/>
    </edge>
    <edge id=":F0_3" function="internal">
        <lane id=":F0_3_0" index="0" speed="13.89" length="15.42" shape="539.86,-1.60,-0.17 555.28,-1.60,-0.17"/>
    </edge>
    <edge id=":F0_4" function="internal">
        <lane id=":F0_4_0" index="0" speed="7.40" length="6.63" shape="539.86,-1.60,-0.17 544.88,-0.93,-0.17 546.14,0.00,-0.17"/>
    </edge>
    <edge id=":F0_5" function="internal">
        <lane id=":F0_5_0" index="0" speed="3.65" length="2.34" shape="539.86,-1.60,-0.17 541.06,-0.80,-0.17 541.46,0.00,-0.17"/>
    </edge>
    <edge id=":F0_10" function="internal">
        <lane id=":F0_10_0" index="0" speed="7.40" length="10.22" shape="546.14,0.00,-0.17 547.58,1.07,-0.17 547.94,4.41,-0.17 545.98,9.08,-0.17"/>
    </edge>
    <edge id=":F0_11" function="internal">
        <lane id=":F0_11_0" index="0" speed="3.65" length="2.34" shape="541.46,0.00,-0.17 541.06,0.80,-0.17 539.86,1.60,-0.17"/>
    </edge>
    <edge id=":F0_6" function="internal">
        <lane id=":F0_6_0" index="0" speed="5.66" length="9.25" shape="543.22,7.46,-0.17 544.30,4.90,-0.17 544.09,3.07,-0.17 542.62,1.97,-0.17 539.86,1.60,-0.17"/>
    </edge>
    <edge id=":F0_7" function="internal">
        <lane id=":F0_7_0" index="0" speed="10.75" length="15.76" shape="543.22,7.46,-0.17 545.96,3.50,-0.17 548.89,0.67,-0.17 551.99,-1.03,-0.17 555.28,-1.60,-0.17"/>
    </edge>
    <edge id=":F0_8" function="internal">
        <lane id=":F0_8_0" index="0" speed="3.65" length="4.67" shape="543.22,7.46,-0.17 544.52,6.83,-0.17 545.41,6.89,-0.17 545.90,7.64,-0.17 545.98,9.08,-0.17"/>
    </edge>
    <edge id=":F1_0" function="internal">
        <lane id=":F1_0_0" index="0" speed="13.89" length="15.42" shape="500.48,101.60,146.85 485.07,101.60,146.85"/>
    </edge>
    <edge id=":F1_1" function="internal">
        <lane id=":F1_1_0" index="0" speed="7.40" length="6.63" shape="500.48,101.60,146.85 495.46,100.93,146.85 494.21,100.00,146.85"/>
    </edge>
    <edge id=":F1_2" function="internal">
        <lane id=":F1_2_0" index="0" speed="3.65" length="2.34" shape="500.48,101.60,146.85 499.28,100.80,146.85 498.88,100.00,146.85"/>
    </edge>
    <edge id=":F1_9" function="internal">
        <lane id=":F1_9_0" index="0" speed="7.40" length="10.22" shape="494.21,100.00,146.85 492.77,98.93,146.85 492.40,95.59,146.85 494.36,90.92,146.85"/>
    </edge>
    <edge id=":F1_10" function="internal">
        <lane id=":F1_10_0" index="0" speed="3.65" length="2.34" shape="498.88,100.00,146.85 499.28,99.20,146.85 500.48,98.40,146.85"/>
    </edge>
    <edge id=":F1_3" function="internal">
        <lane id=":F1_3_0" index="0" speed="5.66" length="9.25" shape="497.12,92.54,146.85 496.05,95.10,146.85 496.25,96.93,146.85 497.73,98.03,146.85 500.48,98.40,146.85"/>
    </edge>
    <edge id=":F1_4" function="internal">
        <lane id=":F1_4_0" index="0" speed="10.75" length="15.76" shape="497.12,92.54,146.85 494.38,96.50,146.85 491.46,99.33,146.85 488.35,101.03,146.85 485.07,101.60,146.85"/>
    </edge>
    <edge id=":F1_5" function="internal">
        <lane id=":F1_5_0" index="0" speed="3.65" length="4.67" shape="497.12,92.54,146.85 495.83,93.17,146.85 494.93,93.11,146.85 494.45,92.36,146.85 494.36,90.92,146.85"/>
    </edge>
    <edge id=":F1_6" function="internal">
        <lane id=":F1_6_0" index="0" speed="9.60" length="12.44" shape="485.07,98.40,146.85 487.49,97.93,146.85 489.85,96.53,146.85 492.14,94.19,146.85 494.36,90.92,146.85"/>
    </edge>
    <edge id=":F1_7" function="internal">
        <lane id=":F1_7_0" index="0" speed="13.89" length="15.42" shape="485.07,98.40,146.85 500.48,98.40,146.85"/>
    </edge>
    <edge id=":F1_8" function="internal">
        <lane id=":F1_8_0" index="0" speed="3.65" length="2.34" shape="485.07,98.40,146.85 486.27,99.20,146.85 486.67,100.00,146.85"/>
    </edge>
    <edge id=":F1_11" function="internal">
        <lane id=":F1_11_0" index="0" speed="3.65" length="2.34" shape="486.67,100.00,146.85 486.27,100.80,146.85 485.07,101.60,146.85"/>
    </edge>
    <edge id=":G0_0" function="internal">
        <lane id=":G0_0_0" index="0" speed="6.72" length="9.30" shape="630.14,1.60,8.75 627.71,1.97,8.75 625.93,3.06,8.75 624.80,4.89,8.75 624.32,7.44,8.75"/>
    </edge>
    <edge id=":G0_1" function="internal">
        <lane id=":G0_1_0" index="0" speed="13.89" length="14.41" shape="630.14,1.60,8.75 615.73,1.60,8.75"/>
    </edge>
    <edge id=":G0_2" function="internal">
        <lane id=":G0_2_0" index="0" speed="3.65" length="2.34" shape="630.14,1.60,8.75 628.94,0.80,8.75 628.54,0.00,8.75"/>
    </edge>
    <edge id=":G0_9" function="internal">
        <lane id=":G0_9_0" index="0" speed="3.65" length="2.34" shape="628.54,0.00,8.75 628.94,-0.80,8.75 630.14,-1.60,8.75"/>
    </edge>
    <edge id=":G0_3" function="internal">
        <lane id=":G0_3_0" index="0" speed="13.89" length="14.41" shape="615.73,-1.60,8.75 630.14,-1.60,8.75"/>
    </edge>
    <edge id=":G0_4" function="internal">
        <lane id=":G0_4_0" index="0" speed="7.91" length="5.94" shape="615.73,-1.60,8.75 619.67,-1.03,8.75 621.34,-0.00,8.75"/>
    </edge>
    <edge id=":G0_5" function="internal">
        <lane id=":G0_5_0" index="0" speed="3.65" length="2.34" shape="615.73,-1.60,8.75 616.93,-0.80,8.75 617.33,0.00,8.75"/>
    </edge>
    <edge id=":G0_10" function="internal">
        <lane id=":G0_10_0" index="0" speed="7.91" length="8.45" shape="621.34,-0.00,8.75 622.41,0.66,8.75 623.96,3.49,8.75 624.32,7.44,8.75"/>
    </edge>
    <edge id=":G0_11" function="internal">
        <lane id=":G0_11_0" index="0" speed="3.65" length="2.34" shape="617.33,0.00,8.75 616.93,0.80,8.75 615.73,1.60,8.75"/>
    </edge>
    <edge id=":G0_6" function="internal">
        <lane id=":G0_6_0" index="0" speed="6.40" length="9.04" shape="621.12,7.28,8.75 620.90,4.79,8.75 619.92,3.02,8.75 618.20,1.95,8.75 615.73,1.60,8.75"/>
    </edge>
    <edge id=":G0_7" function="internal">
        <lane id=":G0_7_0" index="0" speed="8.18" length="14.27" shape="621.12,7.28,8.75 621.86,3.39,8.75 623.61,0.62,8.75 626.37,-1.05,8.75 630.14,-1.60,8.75"/>
    </edge>
    <edge id=":G0_8" function="internal">
        <lane id=":G0_8_0" index="0" speed="3.65" length="4.67" shape="621.12,7.28,8.75 621.99,6.12,8.75 622.81,5.76,8.75 623.58,6.20,8.75 624.32,7.44,8.75"/>
    </edge>
    <edge id=":G1_0" function="internal">
        <lane id=":G1_0_0" index="0" speed="13.89" length="19.37" shape="630.24,101.60,54.01 610.86,101.60,54.01"/>
    </edge>
    <edge id=":G1_1" function="internal">
        <lane id=":G1_1_0" index="0" speed="8.90" length="8.95" shape="630.24,101.60,54.01 624.13,101.03,54.01 621.51,100.00,54.01"/>
    </edge>
    <edge id=":G1_2" function="internal">
        <lane id=":G1_2_0" index="0" speed="3.65" length="2.34" shape="630.24,101.60,54.01 629.04,100.80,54.01 628.64,100.00,54.01"/>
    </edge>
    <edge id=":G1_9" function="internal">
        <lane id=":G1_9_0" index="0" speed="8.90" length="9.57" shape="621.51,100.00,54.01 619.84,99.34,54.01 617.36,96.51,54.01 616.69,92.56,54.01"/>
    </edge>
    <edge id=":G1_10" function="internal">
        <lane id=":G1_10_0" index="0" speed="3.65" length="2.34" shape="628.64,100.00,54.01 629.04,99.20,54.01 630.24,98.40,54.01"/>
    </edge>
    <edge id=":G1_3" function="internal">
        <lane id=":G1_3_0" index="0" speed="7.61" length="13.24" shape="619.88,92.72,54.01 620.42,95.21,54.01 622.32,96.98,54.01 625.60,98.05,54.01 630.24,98.40,54.01"/>
    </edge>
    <edge id=":G1_4" function="internal">
        <lane id=":G1_4_0" index="0" speed="8.18" length="14.27" shape="619.88,92.72,54.01 619.15,96.61,54.01 617.40,99.38,54.01 614.64,101.05,54.01 610.86,101.60,54.01"/>
    </edge>
    <edge id=":G1_5" function="internal">
        <lane id=":G1_5_0" index="0" speed="3.65" length="4.67" shape="619.88,92.72,54.01 619.02,93.88,54.01 618.20,94.24,54.01 617.42,93.80,54.01 616.69,92.56,54.01"/>
    </edge>
    <edge id=":G1_6" function="internal">
        <lane id=":G1_6_0" index="0" speed="6.72" length="9.30" shape="610.86,98.40,54.01 613.30,98.03,54.01 615.08,96.94,54.01 616.21,95.11,54.01 616.69,92.56,54.01"/>
    </edge>
    <edge id=":G1_7" function="internal">