<?xml version="1.0" encoding="UTF-8"?>

<!-- generated on 07/24/20 11:51:58 by Eclipse SUMO netgenerate Version 1.5.0
<configuration xmlns:xsi="http://www.w3.org/2001/XMLSchema-instance" xsi:noNamespaceSchemaLocation="http://sumo.dlr.de/xsd/netgenerateConfiguration.xsd">

    <grid_network>
        <grid value="true"/>
        <grid.x-number value="20"/>
        <grid.y-number value="2"/>
    </grid_network>

    <output>
        <output-file value="7.net.xml"/>
    </output>

    <processing>
        <perturb-x value="10"/>
        <perturb-z value="30"/>
    </processing>

    <random_number>
        <seed value="8419726"/>
    </random_number>

</configuration>
-->

<net version="1.3" junctionCornerDetail="5" limitTurnSpeed="5.50" xmlns:xsi="http://www.w3.org/2001/XMLSchema-instance" xsi:noNamespaceSchemaLocation="http://sumo.dlr.de/xsd/net_file.xsd">

    <location netOffset="14.79,0.00" convBoundary="0.00,0.00,1925.00,100.00" origBoundary="-14.79,0.00,1910.21,100.00" projParameter="!"/>

    <edge id=":A0_0" function="internal">
        <lane id=":A0_0_0" index="0" speed="3.92" length="2.38" shape="16.83,1.60,-25.31 16.21,1.69,-25.18 15.74,1.94,-25.07 15.42,2.37,-24.96 15.25,2.98,-24.83"/>
    </edge>
    <edge id=":A0_1" function="internal">
        <lane id=":A0_1_0" index="0" speed="6.10" length="7.00" shape="12.08,2.53,-24.83 12.59,0.72,-24.96 13.56,-0.57,-25.07 14.97,-1.34,-25.18 16.83,-1.60,-25.31"/>
    </edge>
    <edge id=":A1_0" function="internal">
        <lane id=":A1_0_0" index="0" speed="6.07" length="9.28" shape="3.68,101.60,-5.34 1.31,101.26,-6.34 -0.27,100.23,-7.13 -1.06,98.52,-7.93 -1.07,96.13,-8.93"/>
    </edge>
    <edge id=":A1_1" function="internal">
        <lane id=":A1_1_0" index="0" speed="3.90" length="4.44" shape="2.10,96.58,-8.93 2.10,97.37,-7.98 2.36,97.94,-7.23 2.89,98.29,-6.48 3.68,98.40,-5.53"/>
    </edge>
    <edge id=":B0_0" function="internal">
        <lane id=":B0_0_0" index="0" speed="7.23" length="9.94" shape="106.31,7.94,-25.66 105.51,5.17,-25.65 104.17,3.19,-25.64 102.29,2.00,-25.64 99.88,1.60,-25.63"/>
    </edge>
    <edge id=":B0_1" function="internal">
        <lane id=":B0_1_0" index="0" speed="7.73" length="14.87" shape="106.31,7.94,-25.66 106.21,3.77,-25.66 107.52,0.79,-25.66 110.24,-1.00,-25.66 114.38,-1.60,-25.66"/>
    </edge>
    <edge id=":B0_2" function="internal">
        <lane id=":B0_2_0" index="0" speed="3.65" length="4.67" shape="106.31,7.94,-25.66 106.90,6.63,-25.66 107.62,6.10,-25.66 108.48,6.36,-25.66 109.47,7.41,-25.66"/>
    </edge>
    <edge id=":B0_3" function="internal">
        <lane id=":B0_3_0" index="0" speed="6.17" length="9.05" shape="114.38,1.60,-25.66 111.86,1.96,-25.66 110.20,3.05,-25.66 109.40,4.87,-25.66 109.47,7.41,-25.66"/>
    </edge>
    <edge id=":B0_4" function="internal">
        <lane id=":B0_4_0" index="0" speed="13.89" length="14.49" shape="114.38,1.60,-25.66 99.88,1.60,-25.63"/>
    </edge>
    <edge id=":B0_5" function="internal">
        <lane id=":B0_5_0" index="0" speed="3.65" length="2.34" shape="114.38,1.60,-25.66 113.18,0.80,-25.66 112.78,0.00,-25.66"/>
    </edge>
    <edge id=":B0_9" function="internal">
        <lane id=":B0_9_0" index="0" speed="3.65" length="2.34" shape="112.78,0.00,-25.66 113.18,-0.80,-25.66 114.38,-1.60,-25.66"/>
    </edge>
    <edge id=":B0_6" function="internal">
        <lane id=":B0_6_0" index="0" speed="13.89" length="14.49" shape="99.88,-1.60,-25.63 114.38,-1.60,-25.66"/>
    </edge>
    <edge id=":B0_7" function="internal">
        <lane id=":B0_7_0" index="0" speed="8.62" length="5.67" shape="99.88,-1.60,-25.63 103.50,-1.04,-25.64 105.23,-0.00,-25.64"/>
    </edge>
    <edge id=":B0_8" function="internal">
        <lane id=":B0_8_0" index="0" speed="3.65" length="2.34" shape="99.88,-1.60,-25.63 101.08,-0.80,-25.63 101.48,0.00,-25.63"/>
    </edge>
    <edge id=":B0_10" function="internal">
        <lane id=":B0_10_0" index="0" speed="8.62" length="8.82" shape="105.23,-0.00,-25.64 106.31,0.65,-25.64 108.30,3.47,-25.65 109.47,7.41,-25.66"/>
    </edge>
    <edge id=":B0_11" function="internal">
        <lane id=":B0_11_0" index="0" speed="3.65" length="2.34" shape="101.48,0.00,-25.63 101.08,0.80,-25.63 99.88,1.60,-25.63"/>
    </edge>
    <edge id=":B1_0" function="internal">
        <lane id=":B1_0_0" index="0" speed="13.89" length="14.49" shape="130.22,101.60,85.07 115.72,101.60,85.07"/>
    </edge>
    <edge id=":B1_1" function="internal">
        <lane id=":B1_1_0" index="0" speed="8.62" length="5.67" shape="130.22,101.60,85.07 126.60,101.04,85.07 124.88,100.00,85.07"/>
    </edge>
    <edge id=":B1_2" function="internal">
        <lane id=":B1_2_0" index="0" speed="3.65" length="2.34" shape="130.22,101.60,85.07 129.02,100.80,85.07 128.62,100.00,85.07"/>
    </edge>
    <edge id=":B1_9" function="internal">
        <lane id=":B1_9_0" index="0" speed="8.62" length="8.82" shape="124.88,100.00,85.07 123.79,99.35,85.07 121.81,96.53,85.07 120.63,92.59,85.07"/>
    </edge>
    <edge id=":B1_10" function="internal">
        <lane id=":B1_10_0" index="0" speed="3.65" length="2.34" shape="128.62,100.00,85.07 129.02,99.20,85.07 130.22,98.40,85.07"/>
    </edge>
    <edge id=":B1_3" function="internal">
        <lane id=":B1_3_0" index="0" speed="7.23" length="9.94" shape="123.79,92.06,85.07 124.59,94.83,85.07 125.93,96.81,85.07 127.81,98.00,85.07 130.22,98.40,85.07"/>
    </edge>
    <edge id=":B1_4" function="internal">
        <lane id=":B1_4_0" index="0" speed="7.73" length="14.87" shape="123.79,92.06,85.07 123.89,96.23,85.07 122.58,99.21,85.07 119.86,101.00,85.07 115.72,101.60,85.07"/>
    </edge>
    <edge id=":B1_5" function="internal">
        <lane id=":B1_5_0" index="0" speed="3.65" length="4.67" shape="123.79,92.06,85.07 123.20,93.37,85.07 122.48,93.90,85.07 121.62,93.64,85.07 120.63,92.59,85.07"/>
    </edge>
    <edge id=":B1_6" function="internal">
        <lane id=":B1_6_0" index="0" speed="6.17" length="9.05" shape="115.72,98.40,85.07 118.24,98.04,85.07 119.90,96.95,85.07 120.70,95.13,85.07 120.63,92.59,85.07"/>
    </edge>
    <edge id=":B1_7" function="internal">
        <lane id=":B1_7_0" index="0" speed="13.89" length="14.49" shape="115.72,98.40,85.07 130.22,98.40,85.07"/>
    </edge>
    <edge id=":B1_8" function="internal">
        <lane id=":B1_8_0" index="0" speed="3.65" length="2.34" shape="115.72,98.40,85.07 116.92,99.20,85.07 117.32,100.00,85.07"/>
    </edge>
    <edge id=":B1_11" function="internal">
        <lane id=":B1_11_0" index="0" speed="3.65" length="2.34" shape="117.32,100.00,85.07 116.92,100.80,85.07 115.72,101.60,85.07"/>
    </edge>
    <edge id=":C0_0" function="internal">
        <lane id=":C0_0_0" index="0" speed="6.83" length="9.44" shape="228.76,1.60,-2.57 226.33,1.97,-2.57 224.53,3.09,-2.57 223.36,4.95,-2.57 222.81,7.56,-2.57"/>
    </edge>
    <edge id=":C0_1" function="internal">
        <lane id=":C0_1_0" index="0" speed="13.89" length="14.42" shape="228.76,1.60,-2.57 214.34,1.60,-2.57"/>
    </edge>
    <edge id=":C0_2" function="internal">
        <lane id=":C0_2_0" index="0" speed="3.65" length="2.34" shape="228.76,1.60,-2.57 227.56,0.80,-2.57 227.16,0.00,-2.57"/>
    </edge>
    <edge id=":C0_9" function="internal">
        <lane id=":C0_9_0" index="0" speed="3.65" length="2.34" shape="227.16,0.00,-2.57 227.56,-0.80,-2.57 228.76,-1.60,-2.57"/>
    </edge>
    <edge id=":C0_3" function="internal">
        <lane id=":C0_3_0" index="0" speed="13.89" length="14.42" shape="214.34,-1.60,-2.57 228.76,-1.60,-2.57"/>
    </edge>
    <edge id=":C0_4" function="internal">
        <lane id=":C0_4_0" index="0" speed="7.87" length="5.95" shape="214.34,-1.60,-2.57 218.32,-1.03,-2.57 219.95,-0.00,-2.57"/>
    </edge>
    <edge id=":C0_5" function="internal">
        <lane id=":C0_5_0" index="0" speed="3.65" length="2.34" shape="214.34,-1.60,-2.57 215.54,-0.80,-2.57 215.94,0.00,-2.57"/>
    </edge>
    <edge id=":C0_10" function="internal">
        <lane id=":C0_10_0" index="0" speed="7.87" length="8.55" shape="219.95,-0.00,-2.57 221.05,0.69,-2.57 222.55,3.55,-2.57 222.81,7.56,-2.57"/>
    </edge>
    <edge id=":C0_11" function="internal">
        <lane id=":C0_11_0" index="0" speed="3.65" length="2.34" shape="215.94,0.00,-2.57 215.54,0.80,-2.57 214.34,1.60,-2.57"/>
    </edge>
    <edge id=":C0_6" function="internal">
        <lane id=":C0_6_0" index="0" speed="6.34" length="9.04" shape="219.62,7.31,-2.57 219.46,4.81,-2.57 218.53,3.03,-2.57 216.82,1.96,-2.57 214.34,1.60,-2.57"/>
    </edge>
    <edge id=":C0_7" function="internal">
        <lane id=":C0_7_0" index="0" speed="8.27" length="14.31" shape="219.62,7.31,-2.57 220.46,3.41,-2.57 222.26,0.63,-2.57 225.02,-1.04,-2.57 228.76,-1.60,-2.57"/>
    </edge>
    <edge id=":C0_8" function="internal">
        <lane id=":C0_8_0" index="0" speed="3.65" length="4.67" shape="219.62,7.31,-2.57 220.51,6.18,-2.57 221.34,5.84,-2.57 222.11,6.30,-2.57 222.81,7.56,-2.57"/>
    </edge>
    <edge id=":C1_0" function="internal">
        <lane id=":C1_0_0" index="0" speed="13.89" length="14.42" shape="221.42,101.60,-28.80 207.00,101.60,-28.80"/>
    </edge>
    <edge id=":C1_1" function="internal">
        <lane id=":C1_1_0" index="0" speed="7.87" length="5.95" shape="221.42,101.60,-28.80 217.44,101.03,-28.80 215.81,100.00,-28.80"/>
    </edge>
    <edge id=":C1_2" function="internal">
        <lane id=":C1_2_0" index="0" speed="3.65" length="2.34" shape="221.42,101.60,-28.80 220.22,100.80,-28.80 219.82,100.00,-28.80"/>
    </edge>
    <edge id=":C1_9" function="internal">
        <lane id=":C1_9_0" index="0" speed="7.87" length="8.55" shape="215.81,100.00,-28.80 214.70,99.31,-28.80 213.21,96.45,-28.80 212.95,92.44,-28.80"/>
    </edge>
    <edge id=":C1_10" function="internal">
        <lane id=":C1_10_0" index="0" speed="3.65" length="2.34" shape="219.82,100.00,-28.80 220.22,99.20,-28.80 221.42,98.40,-28.80"/>
    </edge>
    <edge id=":C1_3" function="internal">
        <lane id=":C1_3_0" index="0" speed="6.34" length="9.04" shape="216.14,92.69,-28.80 216.30,95.19,-28.80 217.23,96.97,-28.80 218.94,98.04,-28.80 221.42,98.40,-28.80"/>
    </edge>
    <edge id=":C1_4" function="internal">
        <lane id=":C1_4_0" index="0" speed="8.27" length="14.31" shape="216.14,92.69,-28.80 215.30,96.59,-28.80 213.50,99.37,-28.80 210.73,101.04,-28.80 207.00,101.60,-28.80"/>
    </edge>
    <edge id=":C1_5" function="internal">
        <lane id=":C1_5_0" index="0" speed="3.65" length="4.67" shape="216.14,92.69,-28.80 215.24,93.82,-28.80 214.42,94.16,-28.80 213.65,93.70,-28.80 212.95,92.44,-28.80"/>
    </edge>
    <edge id=":C1_6" function="internal">
        <lane id=":C1_6_0" index="0" speed="6.83" length="9.44" shape="207.00,98.40,-28.80 209.42,98.03,-28.80 211.23,96.91,-28.80 212.40,95.05,-28.80 212.95,92.44,-28.80"/>
    </edge>
    <edge id=":C1_7" function="internal">
        <lane id=":C1_7_0" index="0" speed="13.89" length="14.42" shape="207.00,98.40,-28.80 221.42,98.40,-28.80"/>
    </edge>
    <edge id=":C1_8" function="internal">
        <lane id=":C1_8_0" index="0" speed="3.65" length="2.34" shape="207.00,98.40,-28.80 208.20,99.20,-28.80 208.60,100.00,-28.80"/>
    </edge>
    <edge id=":C1_11" function="internal">
        <lane id=":C1_11_0" index="0" speed="3.65" length="2.34" shape="208.60,100.00,-28.80 208.20,100.80,-28.80 207.00,101.60,-28.80"/>
    </edge>
    <edge id=":D0_0" function="internal">
        <lane id=":D0_0_0" index="0" speed="6.57" length="9.11" shape="319.08,7.28,87.24 318.69,4.79,87.24 317.62,3.02,87.24 315.86,1.95,87.24 313.41,1.60,87.24"/>
    </edge>
    <edge id=":D0_1" function="internal">
        <lane id=":D0_1_0" index="0" speed="7.97" length="14.25" shape="319.08,7.28,87.24 319.57,3.39,87.24 321.19,0.62,87.24 323.94,-1.05,87.24 327.81,-1.60,87.24"/>
    </edge>
    <edge id=":D0_2" function="internal">
        <lane id=":D0_2_0" index="0" speed="3.65" length="4.67" shape="319.08,7.28,87.24 319.86,6.06,87.24 320.65,5.65,87.24 321.46,6.04,87.24 322.28,7.23,87.24"/>
    </edge>
    <edge id=":D0_3" function="internal">
        <lane id=":D0_3_0" index="0" speed="6.47" length="9.03" shape="327.81,1.60,87.24 325.36,1.95,87.24 323.62,3.01,87.24 322.59,4.76,87.24 322.28,7.23,87.24"/>
    </edge>
    <edge id=":D0_4" function="internal">
        <lane id=":D0_4_0" index="0" speed="13.89" length="14.40" shape="327.81,1.60,87.24 313.41,1.60,87.24"/>
    </edge>
    <edge id=":D0_5" function="internal">
        <lane id=":D0_5_0" index="0" speed="3.65" length="2.34" shape="327.81,1.60,87.24 326.61,0.80,87.24 326.21,0.00,87.24"/>
    </edge>
    <edge id=":D0_9" function="internal">
        <lane id=":D0_9_0" index="0" speed="3.65" length="2.34" shape="326.21,0.00,87.24 326.61,-0.80,87.24 327.81,-1.60,87.24"/>
    </edge>
    <edge id=":D0_6" function="internal">
        <lane id=":D0_6_0" index="0" speed="13.89" length="14.40" shape="313.41,-1.60,87.24 327.81,-1.60,87.24"/>
    </edge>
    <edge id=":D0_7" function="internal">
        <lane id=":D0_7_0" index="0" speed="8.05" length="5.90" shape="313.41,-1.60,87.24 317.24,-1.05,87.24 318.98,0.00,87.24"/>
    </edge>
    <edge id=":D0_8" function="internal">
        <lane id=":D0_8_0" index="0" speed="3.65" length="2.34" shape="313.41,-1.60,87.24 314.61,-0.80,87.24 315.01,0.00,87.24"/>
    </edge>
    <edge id=":D0_10" function="internal">
        <lane id=":D0_10_0" index="0" speed="8.05" length="8.31" shape="318.98,0.00,87.24 319.99,0.61,87.24 321.67,3.36,87.24 322.28,7.23,87.24"/>
    </edge>
    <edge id=":D0_11" function="internal">
        <lane id=":D0_11_0" index="0" speed="3.65" length="2.34" shape="315.01,0.00,87.24 314.61,0.80,87.24 313.41,1.60,87.24"/>
    </edge>
    <edge id=":D1_0" function="internal">
        <lane id=":D1_0_0" index="0" speed="13.89" length="14.40" shape="329.32,101.60,-3.71 314.92,101.60,-3.52"/>
    </edge>
    <edge id=":D1_1" function="internal">
        <lane id=":D1_1_0" index="0" speed="8.05" length="5.90" shape="329.32,101.60,-3.71 325.49,101.05,-3.66 323.75,100.00,-3.63"/>
    </edge>
    <edge id=":D1_2" function="internal">
        <lane id=":D1_2_0" index="0" speed="3.65" length="2.34" shape="329.32,101.60,-3.71 328.12,100.80,-3.71 327.72,100.00,-3.71"/>
    </edge>
    <edge id=":D1_9" function="internal">
        <lane id=":D1_9_0" index="0" speed="8.05" length="8.32" shape="323.75,100.00,-3.63 322.74,99.39,-3.61 321.06,96.64,-3.57 320.45,92.77,-3.52"/>
    </edge>
    <edge id=":D1_10" function="internal">
        <lane id=":D1_10_0" index="0" speed="3.65" length="2.34" shape="327.72,100.00,-3.71 328.12,99.20,-3.71 329.32,98.40,-3.71"/>
    </edge>
    <edge id=":D1_3" function="internal">
        <lane id=":D1_3_0" index="0" speed="6.57" length="9.12" shape="323.65,92.72,-3.52 324.04,95.21,-3.57 325.11,96.98,-3.61 326.87,98.05,-3.66 329.32,98.40,-3.71"/>
    </edge>
    <edge id=":D1_4" function="internal">
        <lane id=":D1_4_0" index="0" speed="7.97" length="14.25" shape="323.65,92.72,-3.52 323.16,96.61,-3.52 321.54,99.38,-3.52 318.79,101.05,-3.52 314.92,101.60,-3.52"/>
    </edge>
    <edge id=":D1_5" function="internal">
        <lane id=":D1_5_0" index="0" speed="3.65" length="4.67" shape="323.65,92.72,-3.52 322.87,93.94,-3.52 322.08,94.35,-3.52 321.27,93.96,-3.52 320.45,92.77,-3.52"/>
    </edge>
    <edge id=":D1_6" function="internal">
        <lane id=":D1_6_0" index="0" speed="6.47" length="9.03" shape="314.92,98.40,-3.52 317.37,98.05,-3.52 319.11,96.99,-3.52 320.14,95.24,-3.52 320.45,92.77,-3.52"/>
    </edge>
    <edge id=":D1_7" function="internal">
        <lane id=":D1_7_0" index="0" speed="13.89" length="14.40" shape="314.92,98.40,-3.52 329.32,98.40,-3.71"/>
    </edge>
    <edge id=":D1_8" function="internal">
        <lane id=":D1_8_0" index="0" speed="3.65" length="2.34" shape="314.92,98.40,-3.52 316.12,99.20,-3.52 316.52,100.00,-3.52"/>
    </edge>
    <edge id=":D1_11" function="internal">
        <lane id=":D1_11_0" index="0" speed="3.65" length="2.34" shape="316.52,100.00,-3.52 316.12,100.80,-3.52 314.92,101.60,-3.52"/>
    </edge>
    <edge id=":E0_0" function="internal">
        <lane id=":E0_0_0" index="0" speed="6.98" length="9.63" shape="426.33,1.60,-2.03 423.91,1.98,-2.06 422.09,3.13,-2.09 420.85,5.04,-2.13 420.21,7.71,-2.17"/>
    </edge>
    <edge id=":E0_1" function="internal">
        <lane id=":E0_1_0" index="0" speed="13.89" length="14.44" shape="426.33,1.60,-2.03 411.89,1.60,-2.17"/>
    </edge>
    <edge id=":E0_2" function="internal">
        <lane id=":E0_2_0" index="0" speed="3.65" length="2.34" shape="426.33,1.60,-2.03 425.13,0.80,-2.03 424.73,0.00,-2.03"/>
    </edge>
    <edge id=":E0_9" function="internal">
        <lane id=":E0_9_0" index="0" speed="3.65" length="2.34" shape="424.73,0.00,-2.03 425.13,-0.80,-2.03 426.33,-1.60,-2.03"/>
    </edge>
    <edge id=":E0_3" function="internal">
        <lane id=":E0_3_0" index="0" speed="13.89" length="14.44" shape="411.89,-1.60,-2.17 426.33,-1.60,-2.03"/>
    </edge>
    <edge id=":E0_4" function="internal">
        <lane id=":E0_4_0" index="0" speed="7.81" length="5.97" shape="411.89,-1.60,-2.17 415.93,-1.02,-2.17 417.52,0.00,-2.17"/>
    </edge>
    <edge id=":E0_5" function="internal">
        <lane id=":E0_5_0" index="0" speed="3.65" length="2.34" shape="411.89,-1.60,-2.17 413.09,-0.80,-2.17 413.49,0.00,-2.17"/>
    </edge>
    <edge id=":E0_10" function="internal">
        <lane id=":E0_10_0" index="0" speed="7.81" length="8.67" shape="417.52,0.00,-2.17 418.66,0.73,-2.17 420.09,3.64,-2.17 420.21,7.71,-2.17"/>
    </edge>
    <edge id=":E0_11" function="internal">
        <lane id=":E0_11_0" index="0" speed="3.65" length="2.34" shape="413.49,0.00,-2.17 413.09,0.80,-2.17 411.89,1.60,-2.17"/>
    </edge>
    <edge id=":E0_6" function="internal">
        <lane id=":E0_6_0" index="0" speed="6.28" length="9.04" shape="417.03,7.35,-2.17 416.96,4.84,-2.17 416.07,3.04,-2.17 414.39,1.96,-2.17 411.89,1.60,-2.17"/>
    </edge>
    <edge id=":E0_7" function="internal">
        <lane id=":E0_7_0" index="0" speed="8.40" length="14.38" shape="417.03,7.35,-2.17 417.99,3.44,-2.13 419.86,0.64,-2.09 422.64,-1.04,-2.06 426.33,-1.60,-2.03"/>
    </edge>
    <edge id=":E0_8" function="internal">
        <lane id=":E0_8_0" index="0" speed="3.65" length="4.67" shape="417.03,7.35,-2.17 417.96,6.25,-2.17 418.80,5.94,-2.17 419.55,6.43,-2.17 420.21,7.71,-2.17"/>
    </edge>
    <edge id=":E1_0" function="internal">
        <lane id=":E1_0_0" index="0" speed="13.89" length="14.44" shape="415.76,101.60,-5.74 401.32,101.60,-5.56"/>
    </edge>
    <edge id=":E1_1" function="internal">
        <lane id=":E1_1_0" index="0" speed="7.81" length="5.97" shape="415.76,101.60,-5.74 411.72,101.02,-5.74 410.13,100.00,-5.74"/>
    </edge>
    <edge id=":E1_2" function="internal">
        <lane id=":E1_2_0" index="0" speed="3.65" length="2.34" shape="415.76,101.60,-5.74 414.56,100.80,-5.74 414.16,100.00,-5.74"/>
    </edge>
    <edge id=":E1_9" function="internal">
        <lane id=":E1_9_0" index="0" speed="7.81" length="8.67" shape="410.13,100.00,-5.74 408.99,99.27,-5.74 407.56,96.36,-5.74 407.44,92.29,-5.74"/>
    </edge>
    <edge id=":E1_10" function="internal">
        <lane id=":E1_10_0" index="0" speed="3.65" length="2.34" shape="414.16,100.00,-5.74 414.56,99.20,-5.74 415.76,98.40,-5.74"/>
    </edge>
    <edge id=":E1_3" function="internal">
        <lane id=":E1_3_0" index="0" speed="6.28" length="9.04" shape="410.62,92.65,-5.74 410.69,95.16,-5.74 411.58,96.96,-5.74 413.26,98.04,-5.74 415.76,98.40,-5.74"/>
    </edge>
    <edge id=":E1_4" function="internal">
        <lane id=":E1_4_0" index="0" speed="8.40" length="14.38" shape="410.62,92.65,-5.74 409.65,96.56,-5.69 407.78,99.36,-5.65 405.00,101.04,-5.61 401.32,101.60,-5.56"/>
    </edge>
    <edge id=":E1_5" function="internal">
        <lane id=":E1_5_0" index="0" speed="3.65" length="4.67" shape="410.62,92.65,-5.74 409.69,93.75,-5.74 408.85,94.06,-5.74 408.10,93.57,-5.74 407.44,92.29,-5.74"/>
    </edge>
    <edge id=":E1_6" function="internal">
        <lane id=":E1_6_0" index="0" speed="6.98" length="9.63" shape="401.32,98.40,-5.56 403.73,98.02,-5.61 405.56,96.87,-5.65 406.79,94.96,-5.69 407.44,92.29,-5.74"/>
    </edge>
    <edge id=":E1_7" function="internal">
        <lane id=":E1_7_0" index="0" speed="13.89" length="14.44" shape="401.32,98.40,-5.56 415.76,98.40,-5.74"/>
    </edge>
    <edge id=":E1_8" function="internal">
        <lane id=":E1_8_0" index="0" speed="3.65" length="2.34" shape="401.32,98.40,-5.56 402.52,99.20,-5.56 402.92,100.00,-5.56"/>
    </edge>
    <edge id=":E1_11" function="internal">
        <lane id=":E1_11_0" index="0" speed="3.65" length="2.34" shape="402.92,100.00,-5.56 402.52,100.80,-5.56 401.32,101.60,-5.56"/>
    </edge>
    <edge id=":F0_0" function="internal">
        <lane id=":F0_0_0" index="0" speed="7.65" length="10.43" shape="527.98,1.60,-0.05 525.58,2.02,-0.05 523.63,3.27,-0.05 522.11,5.35,-0.05 521.04,8.26,-0.05"/>
    </edge>
    <edge id=":F0_1" function="internal">
        <lane id=":F0_1_0" index="0" speed="13.89" length="14.61" shape="527.98,1.60,-0.05 513.38,1.60,-0.22"/>
    </edge>
    <edge id=":F0_2" function="internal">
        <lane id=":F0_2_0" index="0" speed="3.65" length="2.34" shape="527.98,1.60,-0.05 526.78,0.80,0.01 526.38,0.00,0.05"/>
    </edge>
    <edge id=":F0_9" function="internal">
        <lane id=":F0_9_0" index="0" speed="3.65" length="2.34" shape="526.38,0.00,0.05 526.78,-0.80,0.08 527.98,-1.60,0.15"/>
    </edge>
    <edge id=":F0_3" function="internal">
        <lane id=":F0_3_0" index="0" speed="13.89" length="14.61" shape="513.38,-1.60,-0.22 527.98,-1.60,0.15"/>
    </edge>
    <edge id=":F0_4" function="internal">
        <lane id=":F0_4_0" index="0" speed="7.63" length="6.08" shape="513.38,-1.60,-0.22 517.67,-0.98,-0.17 519.12,-0.00,-0.15"/>
    </edge>
    <edge id=":F0_5" function="internal">
        <lane id=":F0_5_0" index="0" speed="3.65" length="2.34" shape="513.38,-1.60,-0.22 514.58,-0.80,-0.22 514.98,0.00,-0.22"/>
    </edge>
    <edge id=":F0_10" function="internal">
        <lane id=":F0_10_0" index="0" speed="7.63" length="9.15" shape="519.12,-0.00,-0.15 520.38,0.87,-0.14 521.51,3.95,-0.10 521.04,8.26,-0.05"/>
    </edge>
    <edge id=":F0_11" function="internal">
        <lane id=":F0_11_0" index="0" speed="3.65" length="2.34" shape="514.98,0.00,-0.22 514.58,0.80,-0.22 513.38,1.60,-0.22"/>
    </edge>
    <edge id=":F0_6" function="internal">
        <lane id=":F0_6_0" index="0" speed="6.04" length="9.07" shape="517.94,7.47,-0.05 518.22,4.90,-0.10 517.55,3.07,-0.14 515.94,1.97,-0.17 513.38,1.60,-0.22"/>
    </edge>
    <edge id=":F0_7" function="internal">
        <lane id=":F0_7_0" index="0" speed="8.98" length="14.70" shape="517.94,7.47,-0.05 519.44,3.50,0.01 521.61,0.67,0.05 524.46,-1.03,0.10 527.98,-1.60,0.15"/>
    </edge>
    <edge id=":F0_8" function="internal">
        <lane id=":F0_8_0" index="0" speed="3.65" length="4.67" shape="517.94,7.47,-0.05 519.01,6.51,-0.05 519.89,6.32,-0.05 520.57,6.90,-0.05 521.04,8.26,-0.05"/>
    </edge>
    <edge id=":F1_0" function="internal">
        <lane id=":F1_0_0" index="0" speed="13.89" length="14.60" shape="504.16,101.60,44.05 489.56,101.60,44.05"/>
    </edge>
    <edge id=":F1_1" function="internal">
        <lane id=":F1_1_0" index="0" speed="7.63" length="6.08" shape="504.16,101.60,44.05 499.87,100.98,44.05 498.42,100.00,44.05"/>
    </edge>
    <edge id=":F1_2" function="internal">
        <lane id=":F1_2_0" index="0" speed="3.65" length="2.34" shape="504.16,101.60,44.05 502.96,100.80,44.05 502.56,100.00,44.05"/>
    </edge>
    <edge id=":F1_9" function="internal">
        <lane id=":F1_9_0" index="0" speed="7.63" length="9.15" shape="498.42,100.00,44.05 497.16,99.13,44.05 496.03,96.05,44.05 496.50,91.74,44.05"/>
    </edge>
    <edge id=":F1_10" function="internal">
        <lane id=":F1_10_0" index="0" speed="3.65" length="2.34" shape="502.56,100.00,44.05 502.96,99.20,44.05 504.16,98.40,44.05"/>
    </edge>
    <edge id=":F1_3" function="internal">
        <lane id=":F1_3_0" index="0" speed="6.04" length="9.07" shape="499.60,92.53,44.05 499.32,95.10,44.05 499.99,96.93,44.05 501.60,98.03,44.05 504.16,98.40,44.05"/>
    </edge>
    <edge id=":F1_4" function="internal">
        <lane id=":F1_4_0" index="0" speed="8.98" length="14.70" shape="499.60,92.53,44.05 498.10,96.50,44.05 495.93,99.33,44.05 493.08,101.03,44.05 489.56,101.60,44.05"/>
    </edge>
    <edge id=":F1_5" function="internal">
        <lane id=":F1_5_0" index="0" speed="3.65" length="4.67" shape="499.60,92.53,44.05 498.53,93.49,44.05 497.65,93.68,44.05 496.97,93.10,44.05 496.50,91.74,44.05"/>
    </edge>
    <edge id=":F1_6" function="internal">
        <lane id=":F1_6_0" index="0" speed="7.65" length="10.43" shape="489.56,98.40,44.05 491.96,97.98,44.05 493.91,96.73,44.05 495.43,94.65,44.05 496.50,91.74,44.05"/>
    </edge>
    <edge id=":F1_7" function="internal">
        <lane id=":F1_7_0" index="0" speed="13.89" length="14.60" shape="489.56,98.40,44.05 504.16,98.40,44.05"/>
    </edge>
    <edge id=":F1_8" function="internal">
        <lane id=":F1_8_0" index="0" speed="3.65" length="2.34" shape="489.56,98.40,44.05 490.76,99.20,44.05 491.16,100.00,44.05"/>
    </edge>
    <edge id=":F1_11" function="internal">
        <lane id=":F1_11_0" index="0" speed="3.65" length="2.34" shape="491.16,100.00,44.05 490.76,100.80,44.05 489.56,101.60,44.05"/>
    </edge>
    <edge id=":G0_0" function="internal">
        <lane id=":G0_0_0" index="0" speed="6.60" length="9.15" shape="617.17,1.60,2.62 614.73,1.96,2.62 612.97,3.03,2.62 611.89,4.81,2.62 611.48,7.31,2.62"/>
    </edge>
    <edge id=":G0_1" function="internal">
        <lane id=":G0_1_0" index="0" speed="13.89" length="14.40" shape="617.17,1.60,2.62 602.77,1.60,2.62"/>
    </edge>
    <edge id=":G0_2" function="internal">
        <lane id=":G0_2_0" index="0" speed="3.65" length="2.34" shape="617.17,1.60,2.62 615.97,0.80,2.62 615.57,0.00,2.62"/>
    </edge>
    <edge id=":G0_9" function="internal">
        <lane id=":G0_9_0" index="0" speed="3.65" length="2.34" shape="615.57,0.00,2.62 615.97,-0.80,2.62 617.17,-1.60,2.62"/>
    </edge>
    <edge id=":G0_3" function="internal">
        <lane id=":G0_3_0" index="0" speed="13.89" length="14.40" shape="602.77,-1.60,2.62 617.17,-1.60,2.62"/>
    </edge>
    <edge id=":G0_4" function="internal">
        <lane id=":G0_4_0" index="0" speed="7.96" length="5.93" shape="602.77,-1.60,2.62 606.66,-1.04,2.62 608.37,-0.00,2.62"/>
    </edge>
    <edge id=":G0_5" function="internal">
        <lane id=":G0_5_0" index="0" speed="3.65" length="2.34" shape="602.77,-1.60,2.62 603.97,-0.80,2.62 604.37,0.00,2.62"/>
    </edge>
    <edge id=":G0_10" function="internal">
        <lane id=":G0_10_0" index="0" speed="7.96" length="8.35" shape="608.37,-0.00,2.62 609.40,0.63,2.62 611.01,3.41,2.62 611.48,7.31,2.62"/>
    </edge>
    <edge id=":G0_11" function="internal">
        <lane id=":G0_11_0" index="0" speed="3.65" length="2.34" shape="604.37,0.00,2.62 603.97,0.80,2.62 602.77,1.60,2.62"/>
    </edge>
    <edge id=":G0_6" function="internal">
        <lane id=":G0_6_0" index="0" speed="6.46" length="9.03" shape="608.28,7.24,2.62 607.99,4.77,2.62 606.97,3.01,2.62 605.23,1.95,2.62 602.77,1.60,2.62"/>
    </edge>
    <edge id=":G0_7" function="internal">
        <lane id=":G0_7_0" index="0" speed="8.08" length="14.22" shape="608.28,7.24,2.62 608.91,3.37,2.62 610.60,0.61,2.62 613.36,-1.05,2.62 617.17,-1.60,2.62"/>
    </edge>
    <edge id=":G0_8" function="internal">
        <lane id=":G0_8_0" index="0" speed="3.65" length="4.67" shape="608.28,7.24,2.62 609.11,6.05,2.62 609.92,5.67,2.62 610.71,6.09,2.62 611.48,7.31,2.62"/>
    </edge>
    <edge id=":G1_0" function="internal">
        <lane id=":G1_0_0" index="0" speed="13.89" length="14.40" shape="615.06,101.60,16.20 600.66,101.60,16.20"/>
    </edge>
    <edge id=":G1_1" function="internal">
        <lane id=":G1_1_0" index="0" speed="7.96" length="5.93" shape="615.06,101.60,16.20 611.17,101.04,16.20 609.46,100.00,16.20"/>
    </edge>
    <edge id=":G1_2" function="internal">
        <lane id=":G1_2_0" index="0" speed="3.65" length="2.34" shape="615.06,101.60,16.20 613.86,100.80,16.20 613.46,100.00,16.20"/>
    </edge>
    <edge id=":G1_9" function="internal">
        <lane id=":G1_9_0" index="0" speed="7.96" length="8.35" shape="609.46,100.00,16.20 608.42,99.37,16.20 606.82,96.59,16.20 606.35,92.69,16.20"/>
    </edge>
    <edge id=":G1_10" function="internal">
        <lane id=":G1_10_0" index="0" speed="3.65" length="2.34" shape="613.46,100.00,16.20 613.86,99.20,16.20 615.06,98.40,16.20"/>
    </edge>
    <edge id=":G1_3" function="internal">
        <lane id=":G1_3_0" index="0" speed="6.46" length="9.03" shape="609.55,92.76,16.20 609.84,95.23,16.20 610.86,96.99,16.20 612.60,98.05,16.20 615.06,98.40,16.20"/>
    </edge>
    <edge id=":G1_4" function="internal">
        <lane id=":G1_4_0" index="0" speed="8.08" length="14.22" shape="609.55,92.76,16.20 608.92,96.63,16.20 607.22,99.39,16.20 604.47,101.05,16.20 600.66,101.60,16.20"/>
    </edge>
    <edge id=":G1_5" function="internal">
        <lane id=":G1_5_0" index="0" speed="3.65" length="4.67" shape="609.55,92.76,16.20 608.72,93.95,16.20 607.91,94.33,16.20 607.12,93.91,16.20 606.35,92.69,16.20"/>
    </edge>
    <edge id=":G1_6" function="internal">
        <lane id=":G1_6_0" index="0" speed="6.60" length="9.15" shape="600.66,98.40,16.20 603.10,98.04,16.20 604.86,96.97,16.20 605.94,95.19,16.20 606.35,92.69,16.20"/>
    </edge>
    <edge id=":G1_7" function="internal">
        <lane id=":G1_7_0" index="0" speed="13.89" length="14.40" shape="600.66,98.40,16.20 615.06,98.40,16.20"/>
    </edge>
    <edge id=":G1_8" function="internal">
        <lane id=":G1_8_0" index="0" speed="3.65" length="2.34" shape="600.66,98.40,16.20 601.86,99.20,16.20 602.26,100.00,16.20"/>
    </edge>