<?xml version="1.0" encoding="UTF-8"?>

<!-- generated on 07/24/20 11:51:58 by Eclipse SUMO netgenerate Version 1.5.0
<configuration xmlns:xsi="http://www.w3.org/2001/XMLSchema-instance" xsi:noNamespaceSchemaLocation="http://sumo.dlr.de/xsd/netgenerateConfiguration.xsd">

    <grid_network>
        <grid value="true"/>
        <grid.x-number value="20"/>
        <grid.y-number value="2"/>
    </grid_network>

    <output>
        <output-file value="8.net.xml"/>
    </output>

    <processing>
        <perturb-x value="10"/>
        <perturb-z value="30"/>
    </processing>

    <random_number>
        <seed value="1243412"/>
    </random_number>

</configuration>
-->

<net version="1.3" junctionCornerDetail="5" limitTurnSpeed="5.50" xmlns:xsi="http://www.w3.org/2001/XMLSchema-instance" xsi:noNamespaceSchemaLocation="http://sumo.dlr.de/xsd/net_file.xsd">

    <location netOffset="5.76,0.00" convBoundary="0.00,0.00,1894.95,100.00" origBoundary="-5.76,0.00,1889.20,100.00" projParameter="!"/>

    <edge id=":A0_0" function="internal">
        <lane id=":A0_0_0" index="0" speed="6.07" length="8.46" shape="-1.15,3.78,43.08 -1.10,1.42,42.93 -0.29,-0.26,42.81 1.28,-1.26,42.68 3.61,-1.60,42.53"/>
    </edge>
    <edge id=":A0_1" function="internal">
        <lane id=":A0_1_0" index="0" speed="3.90" length="2.90" shape="3.61,1.60,42.39 2.83,1.71,42.58 2.31,2.05,42.74 2.04,2.61,42.89 2.02,3.39,43.08"/>
    </edge>
    <edge id=":A1_0" function="internal">
        <lane id=":A1_0_0" index="0" speed="6.10" length="7.35" shape="14.94,101.60,7.36 13.05,101.34,7.89 11.63,100.54,8.34 10.67,99.22,8.80 10.18,97.38,9.33"/>
    </edge>
    <edge id=":A1_1" function="internal">
        <lane id=":A1_1_0" index="0" speed="3.91" length="3.03" shape="13.36,96.99,9.33 13.52,97.61,8.82 13.84,98.05,8.38 14.31,98.31,7.95 14.94,98.40,7.43"/>
    </edge>
    <edge id=":B0_0" function="internal">
        <lane id=":B0_0_0" index="0" speed="6.98" length="9.63" shape="114.06,1.60,-10.31 111.64,1.98,-10.31 109.81,3.13,-10.31 108.58,5.04,-10.31 107.93,7.72,-10.31"/>
    </edge>
    <edge id=":B0_1" function="internal">
        <lane id=":B0_1_0" index="0" speed="13.89" length="14.44" shape="114.06,1.60,-10.31 99.61,1.60,-10.31"/>
    </edge>
    <edge id=":B0_2" function="internal">
        <lane id=":B0_2_0" index="0" speed="3.65" length="2.34" shape="114.06,1.60,-10.31 112.86,0.80,-10.31 112.46,0.00,-10.31"/>
    </edge>
    <edge id=":B0_9" function="internal">
        <lane id=":B0_9_0" index="0" speed="3.65" length="2.34" shape="112.46,0.00,-10.31 112.86,-0.80,-10.31 114.06,-1.60,-10.31"/>
    </edge>
    <edge id=":B0_3" function="internal">
        <lane id=":B0_3_0" index="0" speed="13.89" length="14.44" shape="99.61,-1.60,-10.31 114.06,-1.60,-10.31"/>
    </edge>
    <edge id=":B0_4" function="internal">
        <lane id=":B0_4_0" index="0" speed="7.81" length="5.97" shape="99.61,-1.60,-10.31 103.65,-1.02,-10.31 105.24,-0.00,-10.31"/>
    </edge>
    <edge id=":B0_5" function="internal">
        <lane id=":B0_5_0" index="0" speed="3.65" length="2.34" shape="99.61,-1.60,-10.31 100.81,-0.80,-10.31 101.21,0.00,-10.31"/>
    </edge>
    <edge id=":B0_10" function="internal">
        <lane id=":B0_10_0" index="0" speed="7.81" length="8.67" shape="105.24,-0.00,-10.31 106.38,0.73,-10.31 107.81,3.64,-10.31 107.93,7.72,-10.31"/>
    </edge>
    <edge id=":B0_11" function="internal">
        <lane id=":B0_11_0" index="0" speed="3.65" length="2.34" shape="101.21,0.00,-10.31 100.81,0.80,-10.31 99.61,1.60,-10.31"/>
    </edge>
    <edge id=":B0_6" function="internal">
        <lane id=":B0_6_0" index="0" speed="6.28" length="9.04" shape="104.75,7.35,-10.31 104.68,4.84,-10.31 103.80,3.04,-10.31 102.11,1.96,-10.31 99.61,1.60,-10.31"/>
    </edge>
    <edge id=":B0_7" function="internal">
        <lane id=":B0_7_0" index="0" speed="8.40" length="14.38" shape="104.75,7.35,-10.31 105.72,3.44,-10.31 107.59,0.64,-10.31 110.37,-1.04,-10.31 114.06,-1.60,-10.31"/>
    </edge>
    <edge id=":B0_8" function="internal">
        <lane id=":B0_8_0" index="0" speed="3.65" length="4.67" shape="104.75,7.35,-10.31 105.68,6.25,-10.31 106.52,5.95,-10.31 107.27,6.43,-10.31 107.93,7.72,-10.31"/>
    </edge>
    <edge id=":B1_0" function="internal">
        <lane id=":B1_0_0" index="0" speed="13.89" length="14.44" shape="103.45,101.60,-17.75 89.01,101.60,-17.75"/>
    </edge>
    <edge id=":B1_1" function="internal">
        <lane id=":B1_1_0" index="0" speed="7.81" length="5.97" shape="103.45,101.60,-17.75 99.41,101.02,-17.75 97.82,100.00,-17.75"/>
    </edge>
    <edge id=":B1_2" function="internal">
        <lane id=":B1_2_0" index="0" speed="3.65" length="2.34" shape="103.45,101.60,-17.75 102.25,100.80,-17.75 101.85,100.00,-17.75"/>
    </edge>
    <edge id=":B1_9" function="internal">
        <lane id=":B1_9_0" index="0" speed="7.81" length="8.67" shape="97.82,100.00,-17.75 96.68,99.27,-17.75 95.25,96.36,-17.75 95.13,92.28,-17.75"/>
    </edge>
    <edge id=":B1_10" function="internal">
        <lane id=":B1_10_0" index="0" speed="3.65" length="2.34" shape="101.85,100.00,-17.75 102.25,99.20,-17.75 103.45,98.40,-17.75"/>
    </edge>
    <edge id=":B1_3" function="internal">
        <lane id=":B1_3_0" index="0" speed="6.28" length="9.04" shape="98.31,92.65,-17.75 98.39,95.16,-17.75 99.27,96.96,-17.75 100.96,98.04,-17.75 103.45,98.40,-17.75"/>
    </edge>
    <edge id=":B1_4" function="internal">
        <lane id=":B1_4_0" index="0" speed="8.40" length="14.38" shape="98.31,92.65,-17.75 97.35,96.56,-17.75 95.48,99.36,-17.75 92.70,101.04,-17.75 89.01,101.60,-17.75"/>
    </edge>
    <edge id=":B1_5" function="internal">
        <lane id=":B1_5_0" index="0" speed="3.65" length="4.67" shape="98.31,92.65,-17.75 97.38,93.75,-17.75 96.54,94.05,-17.75 95.79,93.57,-17.75 95.13,92.28,-17.75"/>
    </edge>
    <edge id=":B1_6" function="internal">
        <lane id=":B1_6_0" index="0" speed="6.98" length="9.63" shape="89.01,98.40,-17.75 91.43,98.02,-17.75 93.25,96.87,-17.75 94.49,94.96,-17.75 95.13,92.28,-17.75"/>
    </edge>
    <edge id=":B1_7" function="internal">
        <lane id=":B1_7_0" index="0" speed="13.89" length="14.44" shape="89.01,98.40,-17.75 103.45,98.40,-17.75"/>
    </edge>
    <edge id=":B1_8" function="internal">
        <lane id=":B1_8_0" index="0" speed="3.65" length="2.34" shape="89.01,98.40,-17.75 90.21,99.20,-17.75 90.61,100.00,-17.75"/>
    </edge>
    <edge id=":B1_11" function="internal">
        <lane id=":B1_11_0" index="0" speed="3.65" length="2.34" shape="90.61,100.00,-17.75 90.21,100.80,-17.75 89.01,101.60,-17.75"/>
    </edge>
    <edge id=":C0_0" function="internal">
        <lane id=":C0_0_0" index="0" speed="6.96" length="9.60" shape="195.95,7.69,-13.54 195.32,5.03,-13.54 194.09,3.12,-13.54 192.27,1.98,-13.54 189.85,1.60,-13.54"/>
    </edge>
    <edge id=":C0_1" function="internal">
        <lane id=":C0_1_0" index="0" speed="7.82" length="14.62" shape="195.95,7.69,-13.54 196.09,3.63,-13.54 197.53,0.72,-13.54 200.26,-1.02,-13.54 204.29,-1.60,-13.54"/>
    </edge>
    <edge id=":C0_2" function="internal">
        <lane id=":C0_2_0" index="0" speed="3.65" length="4.67" shape="195.95,7.69,-13.54 196.61,6.41,-13.54 197.36,5.93,-13.54 198.20,6.24,-13.54 199.13,7.35,-13.54"/>
    </edge>
    <edge id=":C0_3" function="internal">
        <lane id=":C0_3_0" index="0" speed="6.29" length="9.04" shape="204.29,1.60,-13.54 201.80,1.96,-13.54 200.11,3.04,-13.54 199.22,4.83,-13.54 199.13,7.35,-13.54"/>
    </edge>
    <edge id=":C0_4" function="internal">
        <lane id=":C0_4_0" index="0" speed="13.89" length="14.44" shape="204.29,1.60,-13.54 189.85,1.60,-13.54"/>
    </edge>
    <edge id=":C0_5" function="internal">
        <lane id=":C0_5_0" index="0" speed="3.65" length="2.34" shape="204.29,1.60,-13.54 203.09,0.80,-13.54 202.69,0.00,-13.54"/>
    </edge>
    <edge id=":C0_9" function="internal">
        <lane id=":C0_9_0" index="0" speed="3.65" length="2.34" shape="202.69,0.00,-13.54 203.09,-0.80,-13.54 204.29,-1.60,-13.54"/>
    </edge>
    <edge id=":C0_6" function="internal">
        <lane id=":C0_6_0" index="0" speed="13.89" length="14.44" shape="189.85,-1.60,-13.54 204.29,-1.60,-13.54"/>
    </edge>
    <edge id=":C0_7" function="internal">
        <lane id=":C0_7_0" index="0" speed="8.38" length="5.75" shape="189.85,-1.60,-13.54 193.54,-1.04,-13.54 195.27,0.00,-13.54"/>
    </edge>
    <edge id=":C0_8" function="internal">
        <lane id=":C0_8_0" index="0" speed="3.65" length="2.34" shape="189.85,-1.60,-13.54 191.05,-0.80,-13.54 191.45,0.00,-13.54"/>
    </edge>
    <edge id=":C0_10" function="internal">
        <lane id=":C0_10_0" index="0" speed="8.38" length="8.62" shape="195.27,0.00,-13.54 196.32,0.64,-13.54 198.18,3.43,-13.54 199.13,7.35,-13.54"/>
    </edge>
    <edge id=":C0_11" function="internal">
        <lane id=":C0_11_0" index="0" speed="3.65" length="2.34" shape="191.45,0.00,-13.54 191.05,0.80,-13.54 189.85,1.60,-13.54"/>
    </edge>
    <edge id=":C1_0" function="internal">
        <lane id=":C1_0_0" index="0" speed="13.89" length="14.44" shape="214.43,101.60,-23.48 199.99,101.60,-23.48"/>
    </edge>
    <edge id=":C1_1" function="internal">
        <lane id=":C1_1_0" index="0" speed="8.38" length="5.75" shape="214.43,101.60,-23.48 210.73,101.04,-23.46 209.01,100.00,-23.45"/>
    </edge>
    <edge id=":C1_2" function="internal">
        <lane id=":C1_2_0" index="0" speed="3.65" length="2.34" shape="214.43,101.60,-23.48 213.23,100.80,-23.48 212.83,100.00,-23.48"/>
    </edge>
    <edge id=":C1_9" function="internal">
        <lane id=":C1_9_0" index="0" speed="8.38" length="8.62" shape="209.01,100.00,-23.45 207.96,99.36,-23.44 206.09,96.57,-23.42 205.15,92.65,-23.40"/>
    </edge>
    <edge id=":C1_10" function="internal">
        <lane id=":C1_10_0" index="0" speed="3.65" length="2.34" shape="212.83,100.00,-23.48 213.23,99.20,-23.48 214.43,98.40,-23.48"/>
    </edge>
    <edge id=":C1_3" function="internal">
        <lane id=":C1_3_0" index="0" speed="6.96" length="9.60" shape="208.33,92.31,-23.40 208.96,94.97,-23.42 210.19,96.88,-23.44 212.01,98.02,-23.46 214.43,98.40,-23.48"/>
    </edge>
    <edge id=":C1_4" function="internal">
        <lane id=":C1_4_0" index="0" speed="7.82" length="14.62" shape="208.33,92.31,-23.40 208.19,96.37,-23.42 206.75,99.28,-23.44 204.02,101.02,-23.46 199.99,101.60,-23.48"/>
    </edge>
    <edge id=":C1_5" function="internal">
        <lane id=":C1_5_0" index="0" speed="3.65" length="4.67" shape="208.33,92.31,-23.40 207.67,93.59,-23.40 206.91,94.07,-23.40 206.08,93.76,-23.40 205.15,92.65,-23.40"/>
    </edge>
    <edge id=":C1_6" function="internal">
        <lane id=":C1_6_0" index="0" speed="6.29" length="9.04" shape="199.99,98.40,-23.48 202.48,98.04,-23.46 204.17,96.96,-23.44 205.06,95.17,-23.42 205.15,92.65,-23.40"/>
    </edge>
    <edge id=":C1_7" function="internal">
        <lane id=":C1_7_0" index="0" speed="13.89" length="14.44" shape="199.99,98.40,-23.48 214.43,98.40,-23.48"/>
    </edge>
    <edge id=":C1_8" function="internal">
        <lane id=":C1_8_0" index="0" speed="3.65" length="2.34" shape="199.99,98.40,-23.48 201.19,99.20,-23.48 201.59,100.00,-23.48"/>
    </edge>
    <edge id=":C1_11" function="internal">
        <lane id=":C1_11_0" index="0" speed="3.65" length="2.34" shape="201.59,100.00,-23.48 201.19,100.80,-23.48 199.99,101.60,-23.48"/>
    </edge>
    <edge id=":D0_0" function="internal">
        <lane id=":D0_0_0" index="0" speed="7.72" length="10.51" shape="326.28,1.60,-29.76 323.88,2.02,-29.76 321.91,3.28,-29.76 320.37,5.37,-29.76 319.26,8.30,-29.76"/>
    </edge>
    <edge id=":D0_1" function="internal">
        <lane id=":D0_1_0" index="0" speed="13.89" length="14.62" shape="326.28,1.60,-29.76 311.66,1.60,-29.76"/>
    </edge>
    <edge id=":D0_2" function="internal">
        <lane id=":D0_2_0" index="0" speed="3.65" length="2.34" shape="326.28,1.60,-29.76 325.08,0.80,-29.76 324.68,0.00,-29.76"/>
    </edge>
    <edge id=":D0_9" function="internal">
        <lane id=":D0_9_0" index="0" speed="3.65" length="2.34" shape="324.68,0.00,-29.76 325.08,-0.80,-29.76 326.28,-1.60,-29.76"/>
    </edge>
    <edge id=":D0_3" function="internal">
        <lane id=":D0_3_0" index="0" speed="13.89" length="14.62" shape="311.66,-1.60,-29.76 326.28,-1.60,-29.76"/>
    </edge>
    <edge id=":D0_4" function="internal">
        <lane id=":D0_4_0" index="0" speed="7.61" length="6.10" shape="311.66,-1.60,-29.76 315.98,-0.98,-29.76 317.41,0.00,-29.76"/>
    </edge>
    <edge id=":D0_5" function="internal">
        <lane id=":D0_5_0" index="0" speed="3.65" length="2.34" shape="311.66,-1.60,-29.76 312.86,-0.80,-29.76 313.26,0.00,-29.76"/>
    </edge>
    <edge id=":D0_10" function="internal">
        <lane id=":D0_10_0" index="0" speed="7.61" length="9.20" shape="317.41,0.00,-29.76 318.68,0.88,-29.76 319.78,3.97,-29.76 319.26,8.30,-29.76"/>
    </edge>
    <edge id=":D0_11" function="internal">
        <lane id=":D0_11_0" index="0" speed="3.65" length="2.34" shape="313.26,0.00,-29.76 312.86,0.80,-29.76 311.66,1.60,-29.76"/>
    </edge>
    <edge id=":D0_6" function="internal">
        <lane id=":D0_6_0" index="0" speed="6.02" length="9.08" shape="316.17,7.48,-29.76 316.48,4.91,-29.76 315.83,3.07,-29.76 314.22,1.97,-29.76 311.66,1.60,-29.76"/>
    </edge>
    <edge id=":D0_7" function="internal">
        <lane id=":D0_7_0" index="0" speed="9.04" length="14.73" shape="316.17,7.48,-29.76 317.71,3.51,-29.76 319.91,0.67,-29.76 322.77,-1.03,-29.76 326.28,-1.60,-29.76"/>
    </edge>
    <edge id=":D0_8" function="internal">
        <lane id=":D0_8_0" index="0" speed="3.65" length="4.67" shape="316.17,7.48,-29.76 317.25,6.52,-29.76 318.13,6.35,-29.76 318.80,6.94,-29.76 319.26,8.30,-29.76"/>
    </edge>
    <edge id=":D1_0" function="internal">
        <lane id=":D1_0_0" index="0" speed="13.89" length="14.62" shape="301.25,101.60,55.40 286.63,101.60,55.40"/>
    </edge>
    <edge id=":D1_1" function="internal">
        <lane id=":D1_1_0" index="0" speed="7.61" length="6.10" shape="301.25,101.60,55.40 296.93,100.98,55.40 295.50,100.00,55.40"/>
    </edge>
    <edge id=":D1_2" function="internal">
        <lane id=":D1_2_0" index="0" speed="3.65" length="2.34" shape="301.25,101.60,55.40 300.05,100.80,55.40 299.65,100.00,55.40"/>
    </edge>
    <edge id=":D1_9" function="internal">
        <lane id=":D1_9_0" index="0" speed="7.61" length="9.20" shape="295.50,100.00,55.40 294.23,99.12,55.40 293.13,96.03,55.40 293.65,91.70,55.40"/>
    </edge>
    <edge id=":D1_10" function="internal">
        <lane id=":D1_10_0" index="0" speed="3.65" length="2.34" shape="299.65,100.00,55.40 300.05,99.20,55.40 301.25,98.40,55.40"/>
    </edge>
    <edge id=":D1_3" function="internal">
        <lane id=":D1_3_0" index="0" speed="6.02" length="9.08" shape="296.74,92.52,55.40 296.43,95.09,55.40 297.08,96.93,55.40 298.69,98.03,55.40 301.25,98.40,55.40"/>
    </edge>
    <edge id=":D1_4" function="internal">
        <lane id=":D1_4_0" index="0" speed="9.04" length="14.73" shape="296.74,92.52,55.40 295.20,96.49,55.40 293.00,99.33,55.40 290.14,101.03,55.40 286.63,101.60,55.40"/>
    </edge>
    <edge id=":D1_5" function="internal">
        <lane id=":D1_5_0" index="0" speed="3.65" length="4.67" shape="296.74,92.52,55.40 295.66,93.48,55.40 294.78,93.65,55.40 294.11,93.06,55.40 293.65,91.70,55.40"/>
    </edge>
    <edge id=":D1_6" function="internal">
        <lane id=":D1_6_0" index="0" speed="7.72" length="10.51" shape="286.63,98.40,55.40 289.03,97.98,55.40 291.00,96.72,55.40 292.54,94.63,55.40 293.65,91.70,55.40"/>
    </edge>
    <edge id=":D1_7" function="internal">
        <lane id=":D1_7_0" index="0" speed="13.89" length="14.62" shape="286.63,98.40,55.40 301.25,98.40,55.40"/>
    </edge>
    <edge id=":D1_8" function="internal">
        <lane id=":D1_8_0" index="0" speed="3.65" length="2.34" shape="286.63,98.40,55.40 287.83,99.20,55.40 288.23,100.00,55.40"/>
    </edge>
    <edge id=":D1_11" function="internal">
        <lane id=":D1_11_0" index="0" speed="3.65" length="2.34" shape="288.23,100.00,55.40 287.83,100.80,55.40 286.63,101.60,55.40"/>
    </edge>
    <edge id=":E0_0" function="internal">
        <lane id=":E0_0_0" index="0" speed="7.80" length="10.60" shape="428.84,1.60,-19.16 426.44,2.02,-19.16 424.46,3.29,-19.16 422.88,5.40,-19.16 421.72,8.35,-19.16"/>
    </edge>
    <edge id=":E0_1" function="internal">
        <lane id=":E0_1_0" index="0" speed="13.89" length="14.65" shape="428.84,1.60,-19.16 414.19,1.60,-19.16"/>
    </edge>
    <edge id=":E0_2" function="internal">
        <lane id=":E0_2_0" index="0" speed="3.65" length="2.34" shape="428.84,1.60,-19.16 427.64,0.80,-19.16 427.24,0.00,-19.16"/>
    </edge>
    <edge id=":E0_9" function="internal">
        <lane id=":E0_9_0" index="0" speed="3.65" length="2.34" shape="427.24,0.00,-19.16 427.64,-0.80,-19.16 428.84,-1.60,-19.16"/>
    </edge>
    <edge id=":E0_3" function="internal">
        <lane id=":E0_3_0" index="0" speed="13.89" length="14.65" shape="414.19,-1.60,-19.16 428.84,-1.60,-19.16"/>
    </edge>
    <edge id=":E0_4" function="internal">
        <lane id=":E0_4_0" index="0" speed="7.60" length="6.12" shape="414.19,-1.60,-19.16 418.54,-0.98,-19.16 419.96,0.00,-19.16"/>
    </edge>
    <edge id=":E0_5" function="internal">
        <lane id=":E0_5_0" index="0" speed="3.65" length="2.34" shape="414.19,-1.60,-19.16 415.39,-0.80,-19.16 415.79,0.00,-19.16"/>
    </edge>
    <edge id=":E0_10" function="internal">
        <lane id=":E0_10_0" index="0" speed="7.60" length="9.24" shape="419.96,0.00,-19.16 421.24,0.89,-19.16 422.31,4.00,-19.16 421.72,8.35,-19.16"/>
    </edge>
    <edge id=":E0_11" function="internal">
        <lane id=":E0_11_0" index="0" speed="3.65" length="2.34" shape="415.79,0.00,-19.16 415.39,0.80,-19.16 414.19,1.60,-19.16"/>
    </edge>
    <edge id=":E0_6" function="internal">
        <lane id=":E0_6_0" index="0" speed="5.99" length="9.08" shape="418.64,7.48,-19.16 418.99,4.91,-19.16 418.36,3.07,-19.16 416.76,1.97,-19.16 414.19,1.60,-19.16"/>
    </edge>
    <edge id=":E0_7" function="internal">
        <lane id=":E0_7_0" index="0" speed="9.11" length="14.77" shape="418.64,7.48,-19.16 420.24,3.51,-19.16 422.47,0.67,-19.16 425.34,-1.03,-19.16 428.84,-1.60,-19.16"/>
    </edge>
    <edge id=":E0_8" function="internal">
        <lane id=":E0_8_0" index="0" speed="3.65" length="4.67" shape="418.64,7.48,-19.16 419.74,6.55,-19.16 420.62,6.38,-19.16 421.28,6.98,-19.16 421.72,8.35,-19.16"/>
    </edge>
    <edge id=":E1_0" function="internal">
        <lane id=":E1_0_0" index="0" speed="13.89" length="14.65" shape="402.42,101.60,6.78 387.76,101.60,6.78"/>
    </edge>
    <edge id=":E1_1" function="internal">
        <lane id=":E1_1_0" index="0" speed="7.60" length="6.12" shape="402.42,101.60,6.78 398.07,100.98,6.78 396.65,100.00,6.78"/>
    </edge>
    <edge id=":E1_2" function="internal">
        <lane id=":E1_2_0" index="0" speed="3.65" length="2.34" shape="402.42,101.60,6.78 401.22,100.80,6.78 400.82,100.00,6.78"/>
    </edge>
    <edge id=":E1_9" function="internal">
        <lane id=":E1_9_0" index="0" speed="7.60" length="9.24" shape="396.65,100.00,6.78 395.36,99.11,6.78 394.30,96.00,6.78 394.88,91.65,6.78"/>
    </edge>
    <edge id=":E1_10" function="internal">
        <lane id=":E1_10_0" index="0" speed="3.65" length="2.34" shape="400.82,100.00,6.78 401.22,99.20,6.78 402.42,98.40,6.78"/>
    </edge>
    <edge id=":E1_3" function="internal">
        <lane id=":E1_3_0" index="0" speed="5.99" length="9.08" shape="397.96,92.52,6.78 397.62,95.09,6.78 398.24,96.93,6.78 399.84,98.03,6.78 402.42,98.40,6.78"/>
    </edge>
    <edge id=":E1_4" function="internal">
        <lane id=":E1_4_0" index="0" speed="9.11" length="14.77" shape="397.96,92.52,6.78 396.36,96.49,6.78 394.13,99.33,6.78 391.26,101.03,6.78 387.76,101.60,6.78"/>
    </edge>
    <edge id=":E1_5" function="internal">
        <lane id=":E1_5_0" index="0" speed="3.65" length="4.67" shape="397.96,92.52,6.78 396.87,93.45,6.78 395.99,93.62,6.78 395.33,93.02,6.78 394.88,91.65,6.78"/>
    </edge>
    <edge id=":E1_6" function="internal">
        <lane id=":E1_6_0" index="0" speed="7.80" length="10.60" shape="387.76,98.40,6.78 390.16,97.98,6.78 392.15,96.71,6.78 393.72,94.60,6.78 394.88,91.65,6.78"/>
    </edge>
    <edge id=":E1_7" function="internal">
        <lane id=":E1_7_0" index="0" speed="13.89" length="14.65" shape="387.76,98.40,6.78 402.42,98.40,6.78"/>
    </edge>
    <edge id=":E1_8" function="internal">
        <lane id=":E1_8_0" index="0" speed="3.65" length="2.34" shape="387.76,98.40,6.78 388.96,99.20,6.78 389.36,100.00,6.78"/>
    </edge>
    <edge id=":E1_11" function="internal">
        <lane id=":E1_11_0" index="0" speed="3.65" length="2.34" shape="389.36,100.00,6.78 388.96,100.80,6.78 387.76,101.60,6.78"/>
    </edge>
    <edge id=":F0_0" function="internal">
        <lane id=":F0_0_0" index="0" speed="7.32" length="10.05" shape="501.34,8.02,21.29 500.49,5.21,21.29 499.11,3.20,21.29 497.22,2.00,21.29 494.82,1.60,21.29"/>
    </edge>
    <edge id=":F0_1" function="internal">
        <lane id=":F0_1_0" index="0" speed="7.71" length="14.95" shape="501.34,8.02,21.29 501.17,3.81,21.29 502.44,0.80,21.29 505.16,-1.00,21.29 509.33,-1.60,21.29"/>
    </edge>
    <edge id=":F0_2" function="internal">
        <lane id=":F0_2_0" index="0" speed="3.65" length="4.67" shape="501.34,8.02,21.29 501.91,6.69,21.29 502.62,6.15,21.29 503.48,6.39,21.29 504.49,7.43,21.29"/>
    </edge>
    <edge id=":F0_3" function="internal">
        <lane id=":F0_3_0" index="0" speed="6.14" length="9.06" shape="509.33,1.60,21.29 506.80,1.96,21.29 505.15,3.06,21.29 504.38,4.88,21.29 504.49,7.43,21.29"/>
    </edge>
    <edge id=":F0_4" function="internal">
        <lane id=":F0_4_0" index="0" speed="13.89" length="14.51" shape="509.33,1.60,21.29 494.82,1.60,21.29"/>
    </edge>
    <edge id=":F0_5" function="internal">
        <lane id=":F0_5_0" index="0" speed="3.65" length="2.34" shape="509.33,1.60,21.29 508.13,0.80,21.29 507.73,0.00,21.29"/>
    </edge>
    <edge id=":F0_9" function="internal">
        <lane id=":F0_9_0" index="0" speed="3.65" length="2.34" shape="507.73,0.00,21.29 508.13,-0.80,21.29 509.33,-1.60,21.29"/>
    </edge>
    <edge id=":F0_6" function="internal">
        <lane id=":F0_6_0" index="0" speed="13.89" length="14.51" shape="494.82,-1.60,21.29 509.33,-1.60,21.29"/>
    </edge>
    <edge id=":F0_7" function="internal">
        <lane id=":F0_7_0" index="0" speed="8.69" length="5.65" shape="494.82,-1.60,21.29 498.41,-1.04,21.29 500.14,0.00,21.29"/>
    </edge>
    <edge id=":F0_8" function="internal">
        <lane id=":F0_8_0" index="0" speed="3.65" length="2.34" shape="494.82,-1.60,21.29 496.02,-0.80,21.29 496.42,0.00,21.29"/>
    </edge>
    <edge id=":F0_10" function="internal">
        <lane id=":F0_10_0" index="0" speed="8.69" length="8.88" shape="500.14,0.00,21.29 501.23,0.66,21.29 503.25,3.48,21.29 504.49,7.43,21.29"/>
    </edge>
    <edge id=":F0_11" function="internal">
        <lane id=":F0_11_0" index="0" speed="3.65" length="2.34" shape="496.42,0.00,21.29 496.02,0.80,21.29 494.82,1.60,21.29"/>
    </edge>
    <edge id=":F1_0" function="internal">
        <lane id=":F1_0_0" index="0" speed="13.89" length="14.51" shape="526.85,101.60,-21.10 512.34,101.60,-21.10"/>
    </edge>
    <edge id=":F1_1" function="internal">
        <lane id=":F1_1_0" index="0" speed="8.69" length="5.65" shape="526.85,101.60,-21.10 523.25,101.04,-21.10 521.53,100.00,-21.10"/>
    </edge>
    <edge id=":F1_2" function="internal">
        <lane id=":F1_2_0" index="0" speed="3.65" length="2.34" shape="526.85,101.60,-21.10 525.65,100.80,-21.10 525.25,100.00,-21.10"/>
    </edge>
    <edge id=":F1_9" function="internal">
        <lane id=":F1_9_0" index="0" speed="8.69" length="8.88" shape="521.53,100.00,-21.10 520.44,99.34,-21.10 518.42,96.52,-21.10 517.18,92.57,-21.10"/>
    </edge>
    <edge id=":F1_10" function="internal">
        <lane id=":F1_10_0" index="0" speed="3.65" length="2.34" shape="525.25,100.00,-21.10 525.65,99.20,-21.10 526.85,98.40,-21.10"/>
    </edge>
    <edge id=":F1_3" function="internal">
        <lane id=":F1_3_0" index="0" speed="7.32" length="10.05" shape="520.32,91.98,-21.10 521.18,94.79,-21.10 522.56,96.80,-21.10 524.45,98.00,-21.10 526.85,98.40,-21.10"/>
    </edge>
    <edge id=":F1_4" function="internal">
        <lane id=":F1_4_0" index="0" speed="7.71" length="14.95" shape="520.32,91.98,-21.10 520.50,96.19,-21.10 519.23,99.20,-21.10 516.51,101.00,-21.10 512.34,101.60,-21.10"/>
    </edge>
    <edge id=":F1_5" function="internal">
        <lane id=":F1_5_0" index="0" speed="3.65" length="4.67" shape="520.32,91.98,-21.10 519.76,93.31,-21.10 519.04,93.85,-21.10 518.18,93.61,-21.10 517.18,92.57,-21.10"/>
    </edge>
    <edge id=":F1_6" function="internal">
        <lane id=":F1_6_0" index="0" speed="6.14" length="9.06" shape="512.34,98.40,-21.10 514.87,98.04,-21.10 516.51,96.94,-21.10 517.28,95.12,-21.10 517.18,92.57,-21.10"/>
    </edge>
    <edge id=":F1_7" function="internal">
        <lane id=":F1_7_0" index="0" speed="13.89" length="14.51" shape="512.34,98.40,-21.10 526.85,98.40,-21.10"/>
    </edge>
    <edge id=":F1_8" function="internal">
        <lane id=":F1_8_0" index="0" speed="3.65" length="2.34" shape="512.34,98.40,-21.10 513.54,99.20,-21.10 513.94,100.00,-21.10"/>
    </edge>
    <edge id=":F1_11" function="internal">
        <lane id=":F1_11_0" index="0" speed="3.65" length="2.34" shape="513.94,100.00,-21.10 513.54,100.80,-21.10 512.34,101.60,-21.10"/>
    </edge>
    <edge id=":G0_0" function="internal">
        <lane id=":G0_0_0" index="0" speed="6.76" length="9.36" shape="590.24,7.49,12.39 589.73,4.92,12.39 588.58,3.07,12.39 586.79,1.97,12.39 584.36,1.60,12.39"/>
    </edge>
    <edge id=":G0_1" function="internal">
        <lane id=":G0_1_0" index="0" speed="7.89" length="14.44" shape="590.24,7.49,12.39 590.56,3.52,12.39 592.09,0.67,12.39 594.83,-1.03,12.39 598.78,-1.60,12.39"/>
    </edge>
    <edge id=":G0_2" function="internal">
        <lane id=":G0_2_0" index="0" speed="3.65" length="4.67" shape="590.24,7.49,12.39 590.96,6.25,12.39 591.73,5.80,12.39 592.56,6.15,12.39 593.43,7.29,12.39"/>
    </edge>
    <edge id=":G0_3" function="internal">
        <lane id=":G0_3_0" index="0" speed="6.37" length="9.04" shape="598.78,1.60,12.39 596.30,1.96,12.39 594.59,3.02,12.39 593.63,4.80,12.39 593.43,7.29,12.39"/>
    </edge>
    <edge id=":G0_4" function="internal">
        <lane id=":G0_4_0" index="0" speed="13.89" length="14.41" shape="598.78,1.60,12.39 584.36,1.60,12.39"/>
    </edge>
    <edge id=":G0_5" function="internal">
        <lane id=":G0_5_0" index="0" speed="3.65" length="2.34" shape="598.78,1.60,12.39 597.58,0.80,12.39 597.18,0.00,12.39"/>
    </edge>
    <edge id=":G0_9" function="internal">
        <lane id=":G0_9_0" index="0" speed="3.65" length="2.34" shape="597.18,0.00,12.39 597.58,-0.80,12.39 598.78,-1.60,12.39"/>
    </edge>
    <edge id=":G0_6" function="internal">
        <lane id=":G0_6_0" index="0" speed="13.89" length="14.41" shape="584.36,-1.60,12.39 598.78,-1.60,12.39"/>
    </edge>
    <edge id=":G0_7" function="internal">
        <lane id=":G0_7_0" index="0" speed="8.21" length="5.82" shape="584.36,-1.60,12.39 588.12,-1.04,12.39 589.85,0.00,12.39"/>
    </edge>
    <edge id=":G0_8" function="internal">
        <lane id=":G0_8_0" index="0" speed="3.65" length="2.34" shape="584.36,-1.60,12.39 585.56,-0.80,12.39 585.96,0.00,12.39"/>
    </edge>
    <edge id=":G0_10" function="internal">
        <lane id=":G0_10_0" index="0" speed="8.21" length="8.47" shape="589.85,0.00,12.39 590.88,0.62,12.39 592.65,3.40,12.39 593.43,7.29,12.39"/>
    </edge>
    <edge id=":G0_11" function="internal">
        <lane id=":G0_11_0" index="0" speed="3.65" length="2.34" shape="585.96,0.00,12.39 585.56,0.80,12.39 584.36,1.60,12.39"/>
    </edge>
    <edge id=":G1_0" function="internal">
        <lane id=":G1_0_0" index="0" speed="13.89" length="14.41" shape="604.68,101.60,-43.85 590.27,101.60,-43.85"/>
    </edge>
    <edge id=":G1_1" function="internal">
        <lane id=":G1_1_0" index="0" speed="8.21" length="5.82" shape="604.68,101.60,-43.85 600.93,101.04,-43.85 599.20,100.00,-43.85"/>
    </edge>
    <edge id=":G1_2" function="internal">
        <lane id=":G1_2_0" index="0" speed="3.65" length="2.34" shape="604.68,101.60,-43.85 603.48,100.80,-43.85 603.08,100.00,-43.85"/>
    </edge>
    <edge id=":G1_9" function="internal">
        <lane id=":G1_9_0" index="0" speed="8.21" length="8.47" shape="599.20,100.00,-43.85 598.16,99.38,-43.85 596.39,96.60,-43.85 595.61,92.71,-43.85"/>
    </edge>
    <edge id=":G1_10" function="internal">
        <lane id=":G1_10_0" index="0" speed="3.65" length="2.34" shape="603.08,100.00,-43.85 603.48,99.20,-43.85 604.68,98.40,-43.85"/>
    </edge>
    <edge id=":G1_3" function="internal">
        <lane id=":G1_3_0" index="0" speed="6.76" length="9.36" shape="598.81,92.51,-43.85 599.32,95.08,-43.85 600.46,96.93,-43.85 602.25,98.03,-43.85 604.68,98.40,-43.85"/>
    </edge>
    <edge id=":G1_4" function="internal">
        <lane id=":G1_4_0" index="0" speed="7.89" length="14.44" shape="598.81,92.51,-43.85 598.49,96.48,-43.85 596.96,99.33,-43.85 594.22,101.03,-43.85 590.27,101.60,-43.85"/>
    </edge>
    <edge id=":G1_5" function="internal">
        <lane id=":G1_5_0" index="0" speed="3.65" length="4.67" shape="598.81,92.51,-43.85 598.09,93.75,-43.85 597.31,94.20,-43.85 596.49,93.85,-43.85 595.61,92.71,-43.85"/>
    </edge>
    <edge id=":G1_6" function="internal">
        <lane id=":G1_6_0" index="0" speed="6.37" length="9.04" shape="590.27,98.40,-43.85 592.74,98.04,-43.85 594.46,96.98,-43.85 595.42,95.20,-43.85 595.61,92.71,-43.85"/>
    </edge>
    <edge id=":G1_7" function="internal">
        <lane id=":G1_7_0" index="0" speed="13.89" length="14.41" shape="590.27,98.40,-43.85 604.68,98.40,-43.85"/>
    </edge>