<?xml version="1.0" encoding="UTF-8"?>

<!-- generated on 07/28/20 19:11:50 by Eclipse SUMO netgenerate Version 1.5.0
<configuration xmlns:xsi="http://www.w3.org/2001/XMLSchema-instance" xsi:noNamespaceSchemaLocation="http://sumo.dlr.de/xsd/netgenerateConfiguration.xsd">

    <grid_network>
        <grid value="true"/>
        <grid.x-number value="21"/>
        <grid.y-number value="2"/>
    </grid_network>

    <output>
        <output-file value="8.net.xml"/>
    </output>

    <processing>
        <perturb-z value="25"/>
    </processing>

    <building_defaults>
        <default.speed value="100"/>
    </building_defaults>

    <random_number>
        <seed value="1243412"/>
    </random_number>

</configuration>
-->

<net version="1.3" junctionCornerDetail="5" limitTurnSpeed="5.50" xmlns:xsi="http://www.w3.org/2001/XMLSchema-instance" xsi:noNamespaceSchemaLocation="http://sumo.dlr.de/xsd/net_file.xsd">

    <location netOffset="0.00,0.00" convBoundary="0.00,0.00,2000.00,100.00" origBoundary="0.00,0.00,2000.00,100.00" projParameter="!"/>

    <edge id=":A0_0" function="internal">
        <lane id=":A0_0_0" index="0" speed="6.08" length="7.77" shape="-1.60,3.20,35.33 -1.30,1.10,35.52 -0.40,-0.40,35.67 1.10,-1.30,35.83 3.20,-1.60,36.02"/>
    </edge>
    <edge id=":A0_1" function="internal">
        <lane id=":A0_1_0" index="0" speed="3.90" length="2.65" shape="3.20,1.60,35.94 2.50,1.70,35.77 2.00,2.00,35.64 1.70,2.50,35.50 1.60,3.20,35.33"/>
    </edge>
    <edge id=":A1_0" function="internal">
        <lane id=":A1_0_0" index="0" speed="6.08" length="7.76" shape="3.20,101.60,-13.35 1.10,101.30,-13.19 -0.40,100.40,-13.05 -1.30,98.90,-12.92 -1.60,96.80,-12.75"/>
    </edge>
    <edge id=":A1_1" function="internal">
        <lane id=":A1_1_0" index="0" speed="3.90" length="2.67" shape="1.60,96.80,-12.75 1.70,97.50,-12.94 2.00,98.00,-13.09 2.50,98.30,-13.24 3.20,98.40,-13.43"/>
    </edge>
    <edge id=":B0_0" function="internal">
        <lane id=":B0_0_0" index="0" speed="6.51" length="9.03" shape="98.40,7.20,6.93 98.05,4.75,6.93 97.00,3.00,6.93 95.25,1.95,6.93 92.80,1.60,6.93"/>
    </edge>
    <edge id=":B0_1" function="internal">
        <lane id=":B0_1_0" index="0" speed="8.00" length="14.19" shape="98.40,7.20,6.93 98.95,3.35,6.93 100.60,0.60,6.93 103.35,-1.05,6.93 107.20,-1.60,6.93"/>
    </edge>
    <edge id=":B0_2" function="internal">
        <lane id=":B0_2_0" index="0" speed="3.65" length="4.67" shape="98.40,7.20,6.93 99.20,6.00,6.93 100.00,5.60,6.93 100.80,6.00,6.93 101.60,7.20,6.93"/>
    </edge>
    <edge id=":B0_3" function="internal">
        <lane id=":B0_3_0" index="0" speed="6.51" length="9.03" shape="107.20,1.60,6.93 104.75,1.95,6.93 103.00,3.00,6.93 101.95,4.75,6.93 101.60,7.20,6.93"/>
    </edge>
    <edge id=":B0_4" function="internal">
        <lane id=":B0_4_0" index="0" speed="100.00" length="14.40" shape="107.20,1.60,6.93 92.80,1.60,6.93"/>
    </edge>
    <edge id=":B0_5" function="internal">
        <lane id=":B0_5_0" index="0" speed="3.65" length="2.34" shape="107.20,1.60,6.93 106.00,0.80,6.93 105.60,0.00,6.93"/>
    </edge>
    <edge id=":B0_9" function="internal">
        <lane id=":B0_9_0" index="0" speed="3.65" length="2.34" shape="105.60,0.00,6.93 106.00,-0.80,6.93 107.20,-1.60,6.93"/>
    </edge>
    <edge id=":B0_6" function="internal">
        <lane id=":B0_6_0" index="0" speed="100.00" length="14.40" shape="92.80,-1.60,6.93 107.20,-1.60,6.93"/>
    </edge>
    <edge id=":B0_7" function="internal">
        <lane id=":B0_7_0" index="0" speed="8.00" length="5.93" shape="92.80,-1.60,6.93 96.65,-1.05,6.93 98.40,0.00,6.93"/>
    </edge>
    <edge id=":B0_8" function="internal">
        <lane id=":B0_8_0" index="0" speed="3.65" length="2.34" shape="92.80,-1.60,6.93 94.00,-0.80,6.93 94.40,0.00,6.93"/>
    </edge>
    <edge id=":B0_10" function="internal">
        <lane id=":B0_10_0" index="0" speed="8.00" length="8.26" shape="98.40,0.00,6.93 99.40,0.60,6.93 101.05,3.35,6.93 101.60,7.20,6.93"/>
    </edge>
    <edge id=":B0_11" function="internal">
        <lane id=":B0_11_0" index="0" speed="3.65" length="2.34" shape="94.40,0.00,6.93 94.00,0.80,6.93 92.80,1.60,6.93"/>
    </edge>
    <edge id=":B1_0" function="internal">
        <lane id=":B1_0_0" index="0" speed="100.00" length="14.40" shape="107.20,101.60,15.87 92.80,101.60,15.87"/>
    </edge>
    <edge id=":B1_1" function="internal">
        <lane id=":B1_1_0" index="0" speed="8.00" length="5.93" shape="107.20,101.60,15.87 103.35,101.05,15.87 101.60,100.00,15.87"/>
    </edge>
    <edge id=":B1_2" function="internal">
        <lane id=":B1_2_0" index="0" speed="3.65" length="2.34" shape="107.20,101.60,15.87 106.00,100.80,15.87 105.60,100.00,15.87"/>
    </edge>
    <edge id=":B1_9" function="internal">
        <lane id=":B1_9_0" index="0" speed="8.00" length="8.26" shape="101.60,100.00,15.87 100.60,99.40,15.87 98.95,96.65,15.87 98.40,92.80,15.87"/>
    </edge>
    <edge id=":B1_10" function="internal">
        <lane id=":B1_10_0" index="0" speed="3.65" length="2.34" shape="105.60,100.00,15.87 106.00,99.20,15.87 107.20,98.40,15.87"/>
    </edge>
    <edge id=":B1_3" function="internal">
        <lane id=":B1_3_0" index="0" speed="6.51" length="9.03" shape="101.60,92.80,15.87 101.95,95.25,15.87 103.00,97.00,15.87 104.75,98.05,15.87 107.20,98.40,15.87"/>
    </edge>
    <edge id=":B1_4" function="internal">
        <lane id=":B1_4_0" index="0" speed="8.00" length="14.19" shape="101.60,92.80,15.87 101.05,96.65,15.87 99.40,99.40,15.87 96.65,101.05,15.87 92.80,101.60,15.87"/>
    </edge>
    <edge id=":B1_5" function="internal">
        <lane id=":B1_5_0" index="0" speed="3.65" length="4.67" shape="101.60,92.80,15.87 100.80,94.00,15.87 100.00,94.40,15.87 99.20,94.00,15.87 98.40,92.80,15.87"/>
    </edge>
    <edge id=":B1_6" function="internal">
        <lane id=":B1_6_0" index="0" speed="6.51" length="9.03" shape="92.80,98.40,15.87 95.25,98.05,15.87 97.00,97.00,15.87 98.05,95.25,15.87 98.40,92.80,15.87"/>
    </edge>
    <edge id=":B1_7" function="internal">
        <lane id=":B1_7_0" index="0" speed="100.00" length="14.40" shape="92.80,98.40,15.87 107.20,98.40,15.87"/>
    </edge>
    <edge id=":B1_8" function="internal">
        <lane id=":B1_8_0" index="0" speed="3.65" length="2.34" shape="92.80,98.40,15.87 94.00,99.20,15.87 94.40,100.00,15.87"/>
    </edge>
    <edge id=":B1_11" function="internal">
        <lane id=":B1_11_0" index="0" speed="3.65" length="2.34" shape="94.40,100.00,15.87 94.00,100.80,15.87 92.80,101.60,15.87"/>
    </edge>
    <edge id=":C0_0" function="internal">
        <lane id=":C0_0_0" index="0" speed="6.51" length="9.03" shape="198.40,7.20,-8.59 198.05,4.75,-8.59 197.00,3.00,-8.59 195.25,1.95,-8.59 192.80,1.60,-8.59"/>
    </edge>
    <edge id=":C0_1" function="internal">
        <lane id=":C0_1_0" index="0" speed="8.00" length="14.19" shape="198.40,7.20,-8.59 198.95,3.35,-8.59 200.60,0.60,-8.59 203.35,-1.05,-8.59 207.20,-1.60,-8.59"/>
    </edge>
    <edge id=":C0_2" function="internal">
        <lane id=":C0_2_0" index="0" speed="3.65" length="4.67" shape="198.40,7.20,-8.59 199.20,6.00,-8.59 200.00,5.60,-8.59 200.80,6.00,-8.59 201.60,7.20,-8.59"/>
    </edge>
    <edge id=":C0_3" function="internal">
        <lane id=":C0_3_0" index="0" speed="6.51" length="9.03" shape="207.20,1.60,-8.59 204.75,1.95,-8.59 203.00,3.00,-8.59 201.95,4.75,-8.59 201.60,7.20,-8.59"/>
    </edge>
    <edge id=":C0_4" function="internal">
        <lane id=":C0_4_0" index="0" speed="100.00" length="14.40" shape="207.20,1.60,-8.59 192.80,1.60,-8.59"/>
    </edge>
    <edge id=":C0_5" function="internal">
        <lane id=":C0_5_0" index="0" speed="3.65" length="2.34" shape="207.20,1.60,-8.59 206.00,0.80,-8.59 205.60,0.00,-8.59"/>
    </edge>
    <edge id=":C0_9" function="internal">
        <lane id=":C0_9_0" index="0" speed="3.65" length="2.34" shape="205.60,0.00,-8.59 206.00,-0.80,-8.59 207.20,-1.60,-8.59"/>
    </edge>
    <edge id=":C0_6" function="internal">
        <lane id=":C0_6_0" index="0" speed="100.00" length="14.40" shape="192.80,-1.60,-8.59 207.20,-1.60,-8.59"/>
    </edge>
    <edge id=":C0_7" function="internal">
        <lane id=":C0_7_0" index="0" speed="8.00" length="5.93" shape="192.80,-1.60,-8.59 196.65,-1.05,-8.59 198.40,-0.00,-8.59"/>
    </edge>
    <edge id=":C0_8" function="internal">
        <lane id=":C0_8_0" index="0" speed="3.65" length="2.34" shape="192.80,-1.60,-8.59 194.00,-0.80,-8.59 194.40,0.00,-8.59"/>
    </edge>
    <edge id=":C0_10" function="internal">
        <lane id=":C0_10_0" index="0" speed="8.00" length="8.26" shape="198.40,-0.00,-8.59 199.40,0.60,-8.59 201.05,3.35,-8.59 201.60,7.20,-8.59"/>
    </edge>
    <edge id=":C0_11" function="internal">
        <lane id=":C0_11_0" index="0" speed="3.65" length="2.34" shape="194.40,0.00,-8.59 194.00,0.80,-8.59 192.80,1.60,-8.59"/>
    </edge>
    <edge id=":C1_0" function="internal">
        <lane id=":C1_0_0" index="0" speed="100.00" length="14.40" shape="207.20,101.60,3.60 192.80,101.60,3.60"/>
    </edge>
    <edge id=":C1_1" function="internal">
        <lane id=":C1_1_0" index="0" speed="8.00" length="5.93" shape="207.20,101.60,3.60 203.35,101.05,3.60 201.60,100.00,3.60"/>
    </edge>
    <edge id=":C1_2" function="internal">
        <lane id=":C1_2_0" index="0" speed="3.65" length="2.34" shape="207.20,101.60,3.60 206.00,100.80,3.60 205.60,100.00,3.60"/>
    </edge>
    <edge id=":C1_9" function="internal">
        <lane id=":C1_9_0" index="0" speed="8.00" length="8.26" shape="201.60,100.00,3.60 200.60,99.40,3.60 198.95,96.65,3.60 198.40,92.80,3.60"/>
    </edge>
    <edge id=":C1_10" function="internal">
        <lane id=":C1_10_0" index="0" speed="3.65" length="2.34" shape="205.60,100.00,3.60 206.00,99.20,3.60 207.20,98.40,3.60"/>
    </edge>
    <edge id=":C1_3" function="internal">
        <lane id=":C1_3_0" index="0" speed="6.51" length="9.03" shape="201.60,92.80,3.60 201.95,95.25,3.60 203.00,97.00,3.60 204.75,98.05,3.60 207.20,98.40,3.60"/>
    </edge>
    <edge id=":C1_4" function="internal">
        <lane id=":C1_4_0" index="0" speed="8.00" length="14.19" shape="201.60,92.80,3.60 201.05,96.65,3.60 199.40,99.40,3.60 196.65,101.05,3.60 192.80,101.60,3.60"/>
    </edge>
    <edge id=":C1_5" function="internal">
        <lane id=":C1_5_0" index="0" speed="3.65" length="4.67" shape="201.60,92.80,3.60 200.80,94.00,3.60 200.00,94.40,3.60 199.20,94.00,3.60 198.40,92.80,3.60"/>
    </edge>
    <edge id=":C1_6" function="internal">
        <lane id=":C1_6_0" index="0" speed="6.51" length="9.03" shape="192.80,98.40,3.60 195.25,98.05,3.60 197.00,97.00,3.60 198.05,95.25,3.60 198.40,92.80,3.60"/>
    </edge>
    <edge id=":C1_7" function="internal">
        <lane id=":C1_7_0" index="0" speed="100.00" length="14.40" shape="192.80,98.40,3.60 207.20,98.40,3.60"/>
    </edge>
    <edge id=":C1_8" function="internal">
        <lane id=":C1_8_0" index="0" speed="3.65" length="2.34" shape="192.80,98.40,3.60 194.00,99.20,3.60 194.40,100.00,3.60"/>
    </edge>
    <edge id=":C1_11" function="internal">
        <lane id=":C1_11_0" index="0" speed="3.65" length="2.34" shape="194.40,100.00,3.60 194.00,100.80,3.60 192.80,101.60,3.60"/>
    </edge>
    <edge id=":D0_0" function="internal">
        <lane id=":D0_0_0" index="0" speed="6.51" length="9.03" shape="298.40,7.20,-14.79 298.05,4.75,-14.79 297.00,3.00,-14.79 295.25,1.95,-14.79 292.80,1.60,-14.79"/>
    </edge>
    <edge id=":D0_1" function="internal">
        <lane id=":D0_1_0" index="0" speed="8.00" length="14.19" shape="298.40,7.20,-14.79 298.95,3.35,-14.79 300.60,0.60,-14.79 303.35,-1.05,-14.79 307.20,-1.60,-14.79"/>
    </edge>
    <edge id=":D0_2" function="internal">
        <lane id=":D0_2_0" index="0" speed="3.65" length="4.67" shape="298.40,7.20,-14.79 299.20,6.00,-14.79 300.00,5.60,-14.79 300.80,6.00,-14.79 301.60,7.20,-14.79"/>
    </edge>
    <edge id=":D0_3" function="internal">
        <lane id=":D0_3_0" index="0" speed="6.51" length="9.03" shape="307.20,1.60,-14.79 304.75,1.95,-14.79 303.00,3.00,-14.79 301.95,4.75,-14.79 301.60,7.20,-14.79"/>
    </edge>
    <edge id=":D0_4" function="internal">
        <lane id=":D0_4_0" index="0" speed="100.00" length="14.40" shape="307.20,1.60,-14.79 292.80,1.60,-14.79"/>
    </edge>
    <edge id=":D0_5" function="internal">
        <lane id=":D0_5_0" index="0" speed="3.65" length="2.34" shape="307.20,1.60,-14.79 306.00,0.80,-14.79 305.60,0.00,-14.79"/>
    </edge>
    <edge id=":D0_9" function="internal">
        <lane id=":D0_9_0" index="0" speed="3.65" length="2.34" shape="305.60,0.00,-14.79 306.00,-0.80,-14.79 307.20,-1.60,-14.79"/>
    </edge>
    <edge id=":D0_6" function="internal">
        <lane id=":D0_6_0" index="0" speed="100.00" length="14.40" shape="292.80,-1.60,-14.79 307.20,-1.60,-14.79"/>
    </edge>
    <edge id=":D0_7" function="internal">
        <lane id=":D0_7_0" index="0" speed="8.00" length="5.93" shape="292.80,-1.60,-14.79 296.65,-1.05,-14.79 298.40,-0.00,-14.79"/>
    </edge>
    <edge id=":D0_8" function="internal">
        <lane id=":D0_8_0" index="0" speed="3.65" length="2.34" shape="292.80,-1.60,-14.79 294.00,-0.80,-14.79 294.40,0.00,-14.79"/>
    </edge>
    <edge id=":D0_10" function="internal">
        <lane id=":D0_10_0" index="0" speed="8.00" length="8.26" shape="298.40,-0.00,-14.79 299.40,0.60,-14.79 301.05,3.35,-14.79 301.60,7.20,-14.79"/>
    </edge>
    <edge id=":D0_11" function="internal">
        <lane id=":D0_11_0" index="0" speed="3.65" length="2.34" shape="294.40,0.00,-14.79 294.00,0.80,-14.79 292.80,1.60,-14.79"/>
    </edge>
    <edge id=":D1_0" function="internal">
        <lane id=":D1_0_0" index="0" speed="100.00" length="14.40" shape="307.20,101.60,-24.58 292.80,101.60,-24.73"/>
    </edge>
    <edge id=":D1_1" function="internal">
        <lane id=":D1_1_0" index="0" speed="8.00" length="5.93" shape="307.20,101.60,-24.58 303.35,101.05,-24.62 301.60,100.00,-24.64"/>
    </edge>
    <edge id=":D1_2" function="internal">
        <lane id=":D1_2_0" index="0" speed="3.65" length="2.34" shape="307.20,101.60,-24.58 306.00,100.80,-24.58 305.60,100.00,-24.58"/>
    </edge>
    <edge id=":D1_9" function="internal">
        <lane id=":D1_9_0" index="0" speed="8.00" length="8.26" shape="301.60,100.00,-24.64 300.60,99.40,-24.65 298.95,96.65,-24.69 298.40,92.80,-24.73"/>
    </edge>
    <edge id=":D1_10" function="internal">
        <lane id=":D1_10_0" index="0" speed="3.65" length="2.34" shape="305.60,100.00,-24.58 306.00,99.20,-24.58 307.20,98.40,-24.58"/>
    </edge>
    <edge id=":D1_3" function="internal">
        <lane id=":D1_3_0" index="0" speed="6.51" length="9.03" shape="301.60,92.80,-24.73 301.95,95.25,-24.69 303.00,97.00,-24.65 304.75,98.05,-24.62 307.20,98.40,-24.58"/>
    </edge>
    <edge id=":D1_4" function="internal">
        <lane id=":D1_4_0" index="0" speed="8.00" length="14.19" shape="301.60,92.80,-24.73 301.05,96.65,-24.73 299.40,99.40,-24.73 296.65,101.05,-24.73 292.80,101.60,-24.73"/>
    </edge>
    <edge id=":D1_5" function="internal">
        <lane id=":D1_5_0" index="0" speed="3.65" length="4.67" shape="301.60,92.80,-24.73 300.80,94.00,-24.73 300.00,94.40,-24.73 299.20,94.00,-24.73 298.40,92.80,-24.73"/>
    </edge>
    <edge id=":D1_6" function="internal">
        <lane id=":D1_6_0" index="0" speed="6.51" length="9.03" shape="292.80,98.40,-24.73 295.25,98.05,-24.73 297.00,97.00,-24.73 298.05,95.25,-24.73 298.40,92.80,-24.73"/>
    </edge>
    <edge id=":D1_7" function="internal">
        <lane id=":D1_7_0" index="0" speed="100.00" length="14.40" shape="292.80,98.40,-24.73 307.20,98.40,-24.58"/>
    </edge>
    <edge id=":D1_8" function="internal">
        <lane id=":D1_8_0" index="0" speed="3.65" length="2.34" shape="292.80,98.40,-24.73 294.00,99.20,-24.73 294.40,100.00,-24.73"/>
    </edge>
    <edge id=":D1_11" function="internal">
        <lane id=":D1_11_0" index="0" speed="3.65" length="2.34" shape="294.40,100.00,-24.73 294.00,100.80,-24.73 292.80,101.60,-24.73"/>
    </edge>
    <edge id=":E0_0" function="internal">
        <lane id=":E0_0_0" index="0" speed="6.51" length="9.03" shape="398.40,7.20,-11.28 398.05,4.75,-11.28 397.00,3.00,-11.28 395.25,1.95,-11.28 392.80,1.60,-11.28"/>
    </edge>
    <edge id=":E0_1" function="internal">
        <lane id=":E0_1_0" index="0" speed="8.00" length="14.19" shape="398.40,7.20,-11.28 398.95,3.35,-11.28 400.60,0.60,-11.28 403.35,-1.05,-11.28 407.20,-1.60,-11.28"/>
    </edge>
    <edge id=":E0_2" function="internal">
        <lane id=":E0_2_0" index="0" speed="3.65" length="4.67" shape="398.40,7.20,-11.28 399.20,6.00,-11.28 400.00,5.60,-11.28 400.80,6.00,-11.28 401.60,7.20,-11.28"/>
    </edge>
    <edge id=":E0_3" function="internal">
        <lane id=":E0_3_0" index="0" speed="6.51" length="9.03" shape="407.20,1.60,-11.28 404.75,1.95,-11.28 403.00,3.00,-11.28 401.95,4.75,-11.28 401.60,7.20,-11.28"/>
    </edge>
    <edge id=":E0_4" function="internal">
        <lane id=":E0_4_0" index="0" speed="100.00" length="14.40" shape="407.20,1.60,-11.28 392.80,1.60,-11.28"/>
    </edge>
    <edge id=":E0_5" function="internal">
        <lane id=":E0_5_0" index="0" speed="3.65" length="2.34" shape="407.20,1.60,-11.28 406.00,0.80,-11.28 405.60,0.00,-11.28"/>
    </edge>
    <edge id=":E0_9" function="internal">
        <lane id=":E0_9_0" index="0" speed="3.65" length="2.34" shape="405.60,0.00,-11.28 406.00,-0.80,-11.28 407.20,-1.60,-11.28"/>
    </edge>
    <edge id=":E0_6" function="internal">
        <lane id=":E0_6_0" index="0" speed="100.00" length="14.40" shape="392.80,-1.60,-11.28 407.20,-1.60,-11.28"/>
    </edge>
    <edge id=":E0_7" function="internal">
        <lane id=":E0_7_0" index="0" speed="8.00" length="5.93" shape="392.80,-1.60,-11.28 396.65,-1.05,-11.28 398.40,-0.00,-11.28"/>
    </edge>
    <edge id=":E0_8" function="internal">
        <lane id=":E0_8_0" index="0" speed="3.65" length="2.34" shape="392.80,-1.60,-11.28 394.00,-0.80,-11.28 394.40,0.00,-11.28"/>
    </edge>
    <edge id=":E0_10" function="internal">
        <lane id=":E0_10_0" index="0" speed="8.00" length="8.26" shape="398.40,-0.00,-11.28 399.40,0.60,-11.28 401.05,3.35,-11.28 401.60,7.20,-11.28"/>
    </edge>
    <edge id=":E0_11" function="internal">
        <lane id=":E0_11_0" index="0" speed="3.65" length="2.34" shape="394.40,0.00,-11.28 394.00,0.80,-11.28 392.80,1.60,-11.28"/>
    </edge>
    <edge id=":E1_0" function="internal">
        <lane id=":E1_0_0" index="0" speed="100.00" length="14.40" shape="407.20,101.60,-22.59 392.80,101.60,-22.75"/>
    </edge>
    <edge id=":E1_1" function="internal">
        <lane id=":E1_1_0" index="0" speed="8.00" length="5.93" shape="407.20,101.60,-22.59 403.35,101.05,-22.59 401.60,100.00,-22.59"/>
    </edge>
    <edge id=":E1_2" function="internal">
        <lane id=":E1_2_0" index="0" speed="3.65" length="2.34" shape="407.20,101.60,-22.59 406.00,100.80,-22.59 405.60,100.00,-22.59"/>
    </edge>
    <edge id=":E1_9" function="internal">
        <lane id=":E1_9_0" index="0" speed="8.00" length="8.26" shape="401.60,100.00,-22.59 400.60,99.40,-22.59 398.95,96.65,-22.59 398.40,92.80,-22.59"/>
    </edge>
    <edge id=":E1_10" function="internal">
        <lane id=":E1_10_0" index="0" speed="3.65" length="2.34" shape="405.60,100.00,-22.59 406.00,99.20,-22.59 407.20,98.40,-22.59"/>
    </edge>
    <edge id=":E1_3" function="internal">
        <lane id=":E1_3_0" index="0" speed="6.51" length="9.03" shape="401.60,92.80,-22.59 401.95,95.25,-22.59 403.00,97.00,-22.59 404.75,98.05,-22.59 407.20,98.40,-22.59"/>
    </edge>
    <edge id=":E1_4" function="internal">
        <lane id=":E1_4_0" index="0" speed="8.00" length="14.19" shape="401.60,92.80,-22.59 401.05,96.65,-22.64 399.40,99.40,-22.67 396.65,101.05,-22.71 392.80,101.60,-22.75"/>
    </edge>
    <edge id=":E1_5" function="internal">
        <lane id=":E1_5_0" index="0" speed="3.65" length="4.67" shape="401.60,92.80,-22.59 400.80,94.00,-22.59 400.00,94.40,-22.59 399.20,94.00,-22.59 398.40,92.80,-22.59"/>
    </edge>
    <edge id=":E1_6" function="internal">
        <lane id=":E1_6_0" index="0" speed="6.51" length="9.03" shape="392.80,98.40,-22.75 395.25,98.05,-22.71 397.00,97.00,-22.67 398.05,95.25,-22.64 398.40,92.80,-22.59"/>
    </edge>
    <edge id=":E1_7" function="internal">
        <lane id=":E1_7_0" index="0" speed="100.00" length="14.40" shape="392.80,98.40,-22.75 407.20,98.40,-22.59"/>
    </edge>
    <edge id=":E1_8" function="internal">
        <lane id=":E1_8_0" index="0" speed="3.65" length="2.34" shape="392.80,98.40,-22.75 394.00,99.20,-22.75 394.40,100.00,-22.75"/>
    </edge>
    <edge id=":E1_11" function="internal">
        <lane id=":E1_11_0" index="0" speed="3.65" length="2.34" shape="394.40,100.00,-22.75 394.00,100.80,-22.75 392.80,101.60,-22.75"/>
    </edge>
    <edge id=":F0_0" function="internal">
        <lane id=":F0_0_0" index="0" speed="6.51" length="9.03" shape="498.40,7.20,-19.57 498.05,4.75,-19.57 497.00,3.00,-19.57 495.25,1.95,-19.57 492.80,1.60,-19.57"/>
    </edge>
    <edge id=":F0_1" function="internal">
        <lane id=":F0_1_0" index="0" speed="8.00" length="14.19" shape="498.40,7.20,-19.57 498.95,3.35,-19.57 500.60,0.60,-19.57 503.35,-1.05,-19.57 507.20,-1.60,-19.57"/>
    </edge>
    <edge id=":F0_2" function="internal">
        <lane id=":F0_2_0" index="0" speed="3.65" length="4.67" shape="498.40,7.20,-19.57 499.20,6.00,-19.57 500.00,5.60,-19.57 500.80,6.00,-19.57 501.60,7.20,-19.57"/>
    </edge>
    <edge id=":F0_3" function="internal">
        <lane id=":F0_3_0" index="0" speed="6.51" length="9.03" shape="507.20,1.60,-19.57 504.75,1.95,-19.57 503.00,3.00,-19.57 501.95,4.75,-19.57 501.60,7.20,-19.57"/>
    </edge>
    <edge id=":F0_4" function="internal">
        <lane id=":F0_4_0" index="0" speed="100.00" length="14.40" shape="507.20,1.60,-19.57 492.80,1.60,-19.57"/>
    </edge>
    <edge id=":F0_5" function="internal">
        <lane id=":F0_5_0" index="0" speed="3.65" length="2.34" shape="507.20,1.60,-19.57 506.00,0.80,-19.57 505.60,0.00,-19.57"/>
    </edge>
    <edge id=":F0_9" function="internal">
        <lane id=":F0_9_0" index="0" speed="3.65" length="2.34" shape="505.60,0.00,-19.57 506.00,-0.80,-19.57 507.20,-1.60,-19.57"/>
    </edge>
    <edge id=":F0_6" function="internal">
        <lane id=":F0_6_0" index="0" speed="100.00" length="14.40" shape="492.80,-1.60,-19.57 507.20,-1.60,-19.57"/>
    </edge>
    <edge id=":F0_7" function="internal">
        <lane id=":F0_7_0" index="0" speed="8.00" length="5.93" shape="492.80,-1.60,-19.57 496.65,-1.05,-19.57 498.40,-0.00,-19.57"/>
    </edge>
    <edge id=":F0_8" function="internal">
        <lane id=":F0_8_0" index="0" speed="3.65" length="2.34" shape="492.80,-1.60,-19.57 494.00,-0.80,-19.57 494.40,0.00,-19.57"/>
    </edge>
    <edge id=":F0_10" function="internal">
        <lane id=":F0_10_0" index="0" speed="8.00" length="8.26" shape="498.40,-0.00,-19.57 499.40,0.60,-19.57 501.05,3.35,-19.57 501.60,7.20,-19.57"/>
    </edge>
    <edge id=":F0_11" function="internal">
        <lane id=":F0_11_0" index="0" speed="3.65" length="2.34" shape="494.40,0.00,-19.57 494.00,0.80,-19.57 492.80,1.60,-19.57"/>
    </edge>
    <edge id=":F1_0" function="internal">
        <lane id=":F1_0_0" index="0" speed="100.00" length="14.40" shape="507.20,101.60,4.50 492.80,101.60,4.50"/>
    </edge>
    <edge id=":F1_1" function="internal">
        <lane id=":F1_1_0" index="0" speed="8.00" length="5.93" shape="507.20,101.60,4.50 503.35,101.05,4.50 501.60,100.00,4.50"/>
    </edge>
    <edge id=":F1_2" function="internal">
        <lane id=":F1_2_0" index="0" speed="3.65" length="2.34" shape="507.20,101.60,4.50 506.00,100.80,4.50 505.60,100.00,4.50"/>
    </edge>
    <edge id=":F1_9" function="internal">
        <lane id=":F1_9_0" index="0" speed="8.00" length="8.26" shape="501.60,100.00,4.50 500.60,99.40,4.50 498.95,96.65,4.50 498.40,92.80,4.50"/>
    </edge>
    <edge id=":F1_10" function="internal">
        <lane id=":F1_10_0" index="0" speed="3.65" length="2.34" shape="505.60,100.00,4.50 506.00,99.20,4.50 507.20,98.40,4.50"/>
    </edge>
    <edge id=":F1_3" function="internal">
        <lane id=":F1_3_0" index="0" speed="6.51" length="9.03" shape="501.60,92.80,4.50 501.95,95.25,4.50 503.00,97.00,4.50 504.75,98.05,4.50 507.20,98.40,4.50"/>
    </edge>
    <edge id=":F1_4" function="internal">
        <lane id=":F1_4_0" index="0" speed="8.00" length="14.19" shape="501.60,92.80,4.50 501.05,96.65,4.50 499.40,99.40,4.50 496.65,101.05,4.50 492.80,101.60,4.50"/>
    </edge>
    <edge id=":F1_5" function="internal">
        <lane id=":F1_5_0" index="0" speed="3.65" length="4.67" shape="501.60,92.80,4.50 500.80,94.00,4.50 500.00,94.40,4.50 499.20,94.00,4.50 498.40,92.80,4.50"/>
    </edge>
    <edge id=":F1_6" function="internal">
        <lane id=":F1_6_0" index="0" speed="6.51" length="9.03" shape="492.80,98.40,4.50 495.25,98.05,4.50 497.00,97.00,4.50 498.05,95.25,4.50 498.40,92.80,4.50"/>
    </edge>
    <edge id=":F1_7" function="internal">
        <lane id=":F1_7_0" index="0" speed="100.00" length="14.40" shape="492.80,98.40,4.50 507.20,98.40,4.50"/>
    </edge>
    <edge id=":F1_8" function="internal">
        <lane id=":F1_8_0" index="0" speed="3.65" length="2.34" shape="492.80,98.40,4.50 494.00,99.20,4.50 494.40,100.00,4.50"/>
    </edge>
    <edge id=":F1_11" function="internal">
        <lane id=":F1_11_0" index="0" speed="3.65" length="2.34" shape="494.40,100.00,4.50 494.00,100.80,4.50 492.80,101.60,4.50"/>
    </edge>
    <edge id=":G0_0" function="internal">
        <lane id=":G0_0_0" index="0" speed="6.51" length="9.03" shape="598.40,7.20,-24.80 598.05,4.75,-24.80 597.00,3.00,-24.80 595.25,1.95,-24.80 592.80,1.60,-24.80"/>
    </edge>
    <edge id=":G0_1" function="internal">
        <lane id=":G0_1_0" index="0" speed="8.00" length="14.19" shape="598.40,7.20,-24.80 598.95,3.35,-24.80 600.60,0.60,-24.80 603.35,-1.05,-24.80 607.20,-1.60,-24.80"/>
    </edge>
    <edge id=":G0_2" function="internal">
        <lane id=":G0_2_0" index="0" speed="3.65" length="4.67" shape="598.40,7.20,-24.80 599.20,6.00,-24.80 600.00,5.60,-24.80 600.80,6.00,-24.80 601.60,7.20,-24.80"/>
    </edge>
    <edge id=":G0_3" function="internal">
        <lane id=":G0_3_0" index="0" speed="6.51" length="9.03" shape="607.20,1.60,-24.80 604.75,1.95,-24.80 603.00,3.00,-24.80 601.95,4.75,-24.80 601.60,7.20,-24.80"/>
    </edge>
    <edge id=":G0_4" function="internal">
        <lane id=":G0_4_0" index="0" speed="100.00" length="14.40" shape="607.20,1.60,-24.80 592.80,1.60,-24.80"/>
    </edge>
    <edge id=":G0_5" function="internal">
        <lane id=":G0_5_0" index="0" speed="3.65" length="2.34" shape="607.20,1.60,-24.80 606.00,0.80,-24.80 605.60,0.00,-24.80"/>
    </edge>
    <edge id=":G0_9" function="internal">
        <lane id=":G0_9_0" index="0" speed="3.65" length="2.34" shape="605.60,0.00,-24.80 606.00,-0.80,-24.80 607.20,-1.60,-24.80"/>
    </edge>
    <edge id=":G0_6" function="internal">
        <lane id=":G0_6_0" index="0" speed="100.00" length="14.40" shape="592.80,-1.60,-24.80 607.20,-1.60,-24.80"/>
    </edge>
    <edge id=":G0_7" function="internal">
        <lane id=":G0_7_0" index="0" speed="8.00" length="5.93" shape="592.80,-1.60,-24.80 596.65,-1.05,-24.80 598.40,0.00,-24.80"/>
    </edge>
    <edge id=":G0_8" function="internal">
        <lane id=":G0_8_0" index="0" speed="3.65" length="2.34" shape="592.80,-1.60,-24.80 594.00,-0.80,-24.80 594.40,0.00,-24.80"/>
    </edge>
    <edge id=":G0_10" function="internal">
        <lane id=":G0_10_0" index="0" speed="8.00" length="8.26" shape="598.40,0.00,-24.80 599.40,0.60,-24.80 601.05,3.35,-24.80 601.60,7.20,-24.80"/>
    </edge>
    <edge id=":G0_11" function="internal">
        <lane id=":G0_11_0" index="0" speed="3.65" length="2.34" shape="594.40,0.00,-24.80 594.00,0.80,-24.80 592.80,1.60,-24.80"/>
    </edge>
    <edge id=":G1_0" function="internal">
        <lane id=":G1_0_0" index="0" speed="100.00" length="14.40" shape="607.20,101.60,35.17 592.80,101.60,35.17"/>
    </edge>
    <edge id=":G1_1" function="internal">
        <lane id=":G1_1_0" index="0" speed="8.00" length="5.93" shape="607.20,101.60,35.17 603.35,101.05,35.17 601.60,100.00,35.17"/>
    </edge>
    <edge id=":G1_2" function="internal">
        <lane id=":G1_2_0" index="0" speed="3.65" length="2.34" shape="607.20,101.60,35.17 606.00,100.80,35.17 605.60,100.00,35.17"/>
    </edge>
    <edge id=":G1_9" function="internal">
        <lane id=":G1_9_0" index="0" speed="8.00" length="8.26" shape="601.60,100.00,35.17 600.60,99.40,35.17 598.95,96.65,35.17 598.40,92.80,35.17"/>
    </edge>
    <edge id=":G1_10" function="internal">
        <lane id=":G1_10_0" index="0" speed="3.65" length="2.34" shape="605.60,100.00,35.17 606.00,99.20,35.17 607.20,98.40,35.17"/>
    </edge>
    <edge id=":G1_3" function="internal">
        <lane id=":G1_3_0" index="0" speed="6.51" length="9.03" shape="601.60,92.80,35.17 601.95,95.25,35.17 603.00,97.00,35.17 604.75,98.05,35.17 607.20,98.40,35.17"/>
    </edge>
    <edge id=":G1_4" function="internal">
        <lane id=":G1_4_0" index="0" speed="8.00" length="14.19" shape="601.60,92.80,35.17 601.05,96.65,35.17 599.40,99.40,35.17 596.65,101.05,35.17 592.80,101.60,35.17"/>
    </edge>
    <edge id=":G1_5" function="internal">
        <lane id=":G1_5_0" index="0" speed="3.65" length="4.67" shape="601.60,92.80,35.17 600.80,94.00,35.17 600.00,94.40,35.17 599.20,94.00,35.17 598.40,92.80,35.17"/>
    </edge>
    <edge id=":G1_6" function="internal">
        <lane id=":G1_6_0" index="0" speed="6.51" length="9.03" shape="592.80,98.40,35.17 595.25,98.05,35.17 597.00,97.00,35.17 598.05,95.25,35.17 598.40,92.80,35.17"/>
    </edge>
    <edge id=":G1_7" function="internal">
        <lane id=":G1_7_0" index="0" speed="100.00" length="14.40" shape="592.80,98.40,35.17 607.20,98.40,35.17"/>
    </edge>
    <edge id=":G1_8" function="internal">