<?xml version="1.0" encoding="UTF-8"?>

<!-- generated on 07/22/20 21:49:37 by Eclipse SUMO netgenerate Version 1.5.0
<configuration xmlns:xsi="http://www.w3.org/2001/XMLSchema-instance" xsi:noNamespaceSchemaLocation="http://sumo.dlr.de/xsd/netgenerateConfiguration.xsd">

    <grid_network>
        <grid value="true"/>
        <grid.x-number value="20"/>
        <grid.y-number value="2"/>
    </grid_network>

    <output>
        <output-file value="8.net.xml"/>
    </output>

    <processing>
        <perturb-x value="40"/>
        <perturb-z value="100"/>
    </processing>

    <random_number>
        <seed value="1455346"/>
    </random_number>

</configuration>
-->

<net version="1.3" junctionCornerDetail="5" limitTurnSpeed="5.50" xmlns:xsi="http://www.w3.org/2001/XMLSchema-instance" xsi:noNamespaceSchemaLocation="http://sumo.dlr.de/xsd/net_file.xsd">

    <location netOffset="4.58,0.00" convBoundary="0.00,0.00,1955.51,100.00" origBoundary="-4.58,0.00,1950.93,100.00" projParameter="!"/>

    <edge id=":A0_0" function="internal">
        <lane id=":A0_0_0" index="0" speed="6.07" length="10.38" shape="-1.23,3.69,-199.08 -1.14,1.38,-200.80 -0.31,-0.28,-202.17 1.25,-1.27,-203.54 3.54,-1.60,-205.26"/>
    </edge>
    <edge id=":A0_1" function="internal">
        <lane id=":A0_1_0" index="0" speed="3.90" length="6.53" shape="3.54,1.60,-204.99 2.78,1.71,-203.35 2.26,2.04,-202.03 1.98,2.59,-200.72 1.95,3.36,-199.08"/>
    </edge>
    <edge id=":A1_0" function="internal">
        <lane id=":A1_0_0" index="0" speed="6.09" length="10.94" shape="13.13,101.60,112.19 11.20,101.33,109.96 9.77,100.52,108.06 8.82,99.18,106.17 8.35,97.29,103.94"/>
    </edge>
    <edge id=":A1_1" function="internal">
        <lane id=":A1_1_0" index="0" speed="3.91" length="8.65" shape="11.54,96.96,103.94 11.69,97.59,106.18 12.01,98.04,108.09 12.49,98.31,110.00 13.13,98.40,112.25"/>
    </edge>
    <edge id=":B0_0" function="internal">
        <lane id=":B0_0_0" index="0" speed="8.58" length="11.44" shape="124.27,8.76,-30.12 122.63,5.62,-30.12 120.73,3.39,-30.12 118.58,2.05,-30.12 116.18,1.60,-30.12"/>
    </edge>
    <edge id=":B0_1" function="internal">
        <lane id=":B0_1_0" index="0" speed="7.48" length="16.02" shape="124.27,8.76,-30.12 123.05,4.22,-30.12 123.79,0.99,-30.12 126.48,-0.95,-30.12 131.13,-1.60,-30.12"/>
    </edge>
    <edge id=":B0_2" function="internal">
        <lane id=":B0_2_0" index="0" speed="3.65" length="4.67" shape="124.27,8.76,-30.12 124.54,7.34,-30.12 125.12,6.66,-30.12 126.01,6.71,-30.12 127.21,7.51,-30.12"/>
    </edge>
    <edge id=":B0_3" function="internal">
        <lane id=":B0_3_0" index="0" speed="5.81" length="9.14" shape="131.13,1.60,-30.12 128.48,1.97,-30.12 126.94,3.08,-30.12 126.52,4.92,-30.12 127.21,7.51,-30.12"/>
    </edge>
    <edge id=":B0_4" function="internal">
        <lane id=":B0_4_0" index="0" speed="13.89" length="14.95" shape="131.13,1.60,-30.12 116.18,1.60,-30.12"/>
    </edge>
    <edge id=":B0_5" function="internal">
        <lane id=":B0_5_0" index="0" speed="3.65" length="2.34" shape="131.13,1.60,-30.12 129.93,0.80,-30.12 129.53,-0.00,-30.12"/>
    </edge>
    <edge id=":B0_9" function="internal">
        <lane id=":B0_9_0" index="0" speed="3.65" length="2.34" shape="129.53,-0.00,-30.12 129.93,-0.80,-30.12 131.13,-1.60,-30.12"/>
    </edge>
    <edge id=":B0_6" function="internal">
        <lane id=":B0_6_0" index="0" speed="13.89" length="14.95" shape="116.18,-1.60,-30.12 131.13,-1.60,-30.12"/>
    </edge>
    <edge id=":B0_7" function="internal">
        <lane id=":B0_7_0" index="0" speed="9.82" length="5.50" shape="116.18,-1.60,-30.12 119.56,-1.03,-30.12 121.35,0.00,-30.12"/>
    </edge>
    <edge id=":B0_8" function="internal">
        <lane id=":B0_8_0" index="0" speed="3.65" length="2.34" shape="116.18,-1.60,-30.12 117.38,-0.80,-30.12 117.78,0.00,-30.12"/>
    </edge>
    <edge id=":B0_10" function="internal">
        <lane id=":B0_10_0" index="0" speed="9.82" length="9.70" shape="121.35,0.00,-30.12 122.53,0.68,-30.12 125.08,3.52,-30.12 127.21,7.51,-30.12"/>
    </edge>
    <edge id=":B0_11" function="internal">
        <lane id=":B0_11_0" index="0" speed="3.65" length="2.34" shape="117.78,0.00,-30.12 117.38,0.80,-30.12 116.18,1.60,-30.12"/>
    </edge>
    <edge id=":B1_0" function="internal">
        <lane id=":B1_0_0" index="0" speed="13.89" length="14.95" shape="170.77,101.60,60.26 155.82,101.60,60.26"/>
    </edge>
    <edge id=":B1_1" function="internal">
        <lane id=":B1_1_0" index="0" speed="9.82" length="5.50" shape="170.77,101.60,60.26 167.38,101.03,60.26 165.59,100.00,60.26"/>
    </edge>
    <edge id=":B1_2" function="internal">
        <lane id=":B1_2_0" index="0" speed="3.65" length="2.34" shape="170.77,101.60,60.26 169.57,100.80,60.26 169.17,100.00,60.26"/>
    </edge>
    <edge id=":B1_9" function="internal">
        <lane id=":B1_9_0" index="0" speed="9.82" length="9.70" shape="165.59,100.00,60.26 164.42,99.32,60.26 161.86,96.48,60.26 159.73,92.49,60.26"/>
    </edge>
    <edge id=":B1_10" function="internal">
        <lane id=":B1_10_0" index="0" speed="3.65" length="2.34" shape="169.17,100.00,60.26 169.57,99.20,60.26 170.77,98.40,60.26"/>
    </edge>
    <edge id=":B1_3" function="internal">
        <lane id=":B1_3_0" index="0" speed="8.58" length="11.44" shape="162.68,91.24,60.26 164.32,94.38,60.26 166.21,96.61,60.26 168.36,97.95,60.26 170.77,98.40,60.26"/>
    </edge>
    <edge id=":B1_4" function="internal">
        <lane id=":B1_4_0" index="0" speed="7.48" length="16.02" shape="162.68,91.24,60.26 163.89,95.78,60.26 163.15,99.01,60.26 160.46,100.95,60.26 155.82,101.60,60.26"/>
    </edge>
    <edge id=":B1_5" function="internal">
        <lane id=":B1_5_0" index="0" speed="3.65" length="4.67" shape="162.68,91.24,60.26 162.41,92.66,60.26 161.83,93.34,60.26 160.93,93.29,60.26 159.73,92.49,60.26"/>
    </edge>
    <edge id=":B1_6" function="internal">
        <lane id=":B1_6_0" index="0" speed="5.81" length="9.14" shape="155.82,98.40,60.26 158.47,98.03,60.26 160.00,96.92,60.26 160.42,95.08,60.26 159.73,92.49,60.26"/>
    </edge>
    <edge id=":B1_7" function="internal">
        <lane id=":B1_7_0" index="0" speed="13.89" length="14.95" shape="155.82,98.40,60.26 170.77,98.40,60.26"/>
    </edge>
    <edge id=":B1_8" function="internal">
        <lane id=":B1_8_0" index="0" speed="3.65" length="2.34" shape="155.82,98.40,60.26 157.02,99.20,60.26 157.42,100.00,60.26"/>
    </edge>
    <edge id=":B1_11" function="internal">
        <lane id=":B1_11_0" index="0" speed="3.65" length="2.34" shape="157.42,100.00,60.26 157.02,100.80,60.26 155.82,101.60,60.26"/>
    </edge>
    <edge id=":C0_0" function="internal">
        <lane id=":C0_0_0" index="0" speed="12.15" length="14.58" shape="179.36,9.40,-31.64 175.89,5.99,-31.59 172.74,3.55,-31.54 169.92,2.09,-31.51 167.41,1.60,-31.48"/>
    </edge>
    <edge id=":C0_1" function="internal">
        <lane id=":C0_1_0" index="0" speed="7.40" length="18.86" shape="179.36,9.40,-31.64 175.82,4.59,-31.64 175.44,1.15,-31.64 178.22,-0.91,-31.64 184.15,-1.60,-31.64"/>
    </edge>
    <edge id=":C0_2" function="internal">
        <lane id=":C0_2_0" index="0" speed="3.65" length="4.67" shape="179.36,9.40,-31.64 179.13,7.97,-31.64 179.44,7.14,-31.64 180.30,6.88,-31.64 181.70,7.22,-31.64"/>
    </edge>
    <edge id=":C0_3" function="internal">
        <lane id=":C0_3_0" index="0" speed="5.49" length="9.63" shape="184.15,1.60,-31.64 181.12,1.95,-31.64 179.70,3.00,-31.64 179.90,4.76,-31.64 181.70,7.22,-31.64"/>
    </edge>
    <edge id=":C0_4" function="internal">
        <lane id=":C0_4_0" index="0" speed="13.89" length="16.74" shape="184.15,1.60,-31.64 167.41,1.60,-31.48"/>
    </edge>
    <edge id=":C0_5" function="internal">
        <lane id=":C0_5_0" index="0" speed="3.65" length="2.34" shape="184.15,1.60,-31.64 182.95,0.80,-31.64 182.55,0.00,-31.64"/>
    </edge>
    <edge id=":C0_9" function="internal">
        <lane id=":C0_9_0" index="0" speed="3.65" length="2.34" shape="182.55,0.00,-31.64 182.95,-0.80,-31.64 184.15,-1.60,-31.64"/>
    </edge>
    <edge id=":C0_6" function="internal">
        <lane id=":C0_6_0" index="0" speed="13.89" length="16.74" shape="167.41,-1.60,-31.45 184.15,-1.60,-31.64"/>
    </edge>
    <edge id=":C0_7" function="internal">
        <lane id=":C0_7_0" index="0" speed="13.17" length="5.65" shape="167.41,-1.60,-31.45 170.59,-1.05,-31.48 172.77,-0.00,-31.51"/>
    </edge>
    <edge id=":C0_8" function="internal">
        <lane id=":C0_8_0" index="0" speed="3.65" length="2.34" shape="167.41,-1.60,-31.45 168.61,-0.80,-31.46 169.01,0.00,-31.46"/>
    </edge>
    <edge id=":C0_10" function="internal">
        <lane id=":C0_10_0" index="0" speed="13.17" length="11.55" shape="172.77,-0.00,-31.51 174.03,0.60,-31.53 177.73,3.36,-31.58 181.70,7.22,-31.64"/>
    </edge>
    <edge id=":C0_11" function="internal">
        <lane id=":C0_11_0" index="0" speed="3.65" length="2.34" shape="169.01,0.00,-31.46 168.61,0.80,-31.47 167.41,1.60,-31.48"/>
    </edge>
    <edge id=":C1_0" function="internal">
        <lane id=":C1_0_0" index="0" speed="13.89" length="16.74" shape="271.21,101.60,-13.29 254.47,101.60,-13.29"/>
    </edge>
    <edge id=":C1_1" function="internal">
        <lane id=":C1_1_0" index="0" speed="13.17" length="5.65" shape="271.21,101.60,-13.29 268.04,101.05,-13.29 265.85,100.00,-13.29"/>
    </edge>
    <edge id=":C1_2" function="internal">
        <lane id=":C1_2_0" index="0" speed="3.65" length="2.34" shape="271.21,101.60,-13.29 270.01,100.80,-13.29 269.61,100.00,-13.29"/>
    </edge>
    <edge id=":C1_9" function="internal">
        <lane id=":C1_9_0" index="0" speed="13.17" length="11.55" shape="265.85,100.00,-13.29 264.59,99.40,-13.29 260.89,96.64,-13.29 256.92,92.78,-13.29"/>
    </edge>
    <edge id=":C1_10" function="internal">
        <lane id=":C1_10_0" index="0" speed="3.65" length="2.34" shape="269.61,100.00,-13.29 270.01,99.20,-13.29 271.21,98.40,-13.29"/>
    </edge>
    <edge id=":C1_3" function="internal">
        <lane id=":C1_3_0" index="0" speed="12.15" length="14.58" shape="259.26,90.60,-13.29 262.73,94.01,-13.29 265.88,96.45,-13.29 268.70,97.91,-13.29 271.21,98.40,-13.29"/>
    </edge>
    <edge id=":C1_4" function="internal">
        <lane id=":C1_4_0" index="0" speed="7.40" length="18.86" shape="259.26,90.60,-13.29 262.80,95.41,-13.29 263.18,98.85,-13.29 260.40,100.91,-13.29 254.47,101.60,-13.29"/>
    </edge>
    <edge id=":C1_5" function="internal">
        <lane id=":C1_5_0" index="0" speed="3.65" length="4.67" shape="259.26,90.60,-13.29 259.49,92.03,-13.29 259.18,92.86,-13.29 258.32,93.12,-13.29 256.92,92.78,-13.29"/>
    </edge>
    <edge id=":C1_6" function="internal">
        <lane id=":C1_6_0" index="0" speed="5.49" length="9.63" shape="254.47,98.40,-13.29 257.50,98.05,-13.29 258.92,97.00,-13.29 258.73,95.24,-13.29 256.92,92.78,-13.29"/>
    </edge>
    <edge id=":C1_7" function="internal">
        <lane id=":C1_7_0" index="0" speed="13.89" length="16.74" shape="254.47,98.40,-13.29 271.21,98.40,-13.29"/>
    </edge>
    <edge id=":C1_8" function="internal">
        <lane id=":C1_8_0" index="0" speed="3.65" length="2.34" shape="254.47,98.40,-13.29 255.67,99.20,-13.29 256.07,100.00,-13.29"/>
    </edge>
    <edge id=":C1_11" function="internal">
        <lane id=":C1_11_0" index="0" speed="3.65" length="2.34" shape="256.07,100.00,-13.29 255.67,100.80,-13.29 254.47,101.60,-13.29"/>
    </edge>
    <edge id=":D0_0" function="internal">
        <lane id=":D0_0_0" index="0" speed="7.70" length="10.48" shape="285.35,8.29,-70.87 284.25,5.36,-70.87 282.72,3.27,-70.87 280.76,2.02,-70.87 278.36,1.60,-70.87"/>
    </edge>
    <edge id=":D0_1" function="internal">
        <lane id=":D0_1_0" index="0" speed="7.62" length="15.27" shape="285.35,8.29,-70.87 284.85,3.96,-70.87 285.96,0.87,-70.87 288.66,-0.98,-70.87 292.98,-1.60,-70.87"/>
    </edge>
    <edge id=":D0_2" function="internal">
        <lane id=":D0_2_0" index="0" speed="3.65" length="4.67" shape="285.35,8.29,-70.87 285.82,6.93,-70.87 286.49,6.33,-70.87 287.37,6.52,-70.87 288.45,7.48,-70.87"/>
    </edge>
    <edge id=":D0_3" function="internal">
        <lane id=":D0_3_0" index="0" speed="6.02" length="9.07" shape="292.98,1.60,-70.87 290.41,1.97,-70.87 288.81,3.07,-70.87 288.15,4.90,-70.87 288.45,7.48,-70.87"/>
    </edge>
    <edge id=":D0_4" function="internal">
        <lane id=":D0_4_0" index="0" speed="13.89" length="14.62" shape="292.98,1.60,-70.87 278.36,1.60,-70.87"/>
    </edge>
    <edge id=":D0_5" function="internal">
        <lane id=":D0_5_0" index="0" speed="3.65" length="2.34" shape="292.98,1.60,-70.87 291.78,0.80,-70.87 291.38,0.00,-70.87"/>
    </edge>
    <edge id=":D0_9" function="internal">
        <lane id=":D0_9_0" index="0" speed="3.65" length="2.34" shape="291.38,0.00,-70.87 291.78,-0.80,-70.87 292.98,-1.60,-70.87"/>
    </edge>
    <edge id=":D0_6" function="internal">
        <lane id=":D0_6_0" index="0" speed="13.89" length="14.62" shape="278.36,-1.60,-70.87 292.98,-1.60,-70.87"/>
    </edge>
    <edge id=":D0_7" function="internal">
        <lane id=":D0_7_0" index="0" speed="9.02" length="5.58" shape="278.36,-1.60,-70.87 281.88,-1.03,-70.87 283.61,0.00,-70.87"/>
    </edge>
    <edge id=":D0_8" function="internal">
        <lane id=":D0_8_0" index="0" speed="3.65" length="2.34" shape="278.36,-1.60,-70.87 279.56,-0.80,-70.87 279.96,0.00,-70.87"/>
    </edge>
    <edge id=":D0_10" function="internal">
        <lane id=":D0_10_0" index="0" speed="9.02" length="9.14" shape="283.61,0.00,-70.87 284.73,0.67,-70.87 286.92,3.50,-70.87 288.45,7.48,-70.87"/>
    </edge>
    <edge id=":D0_11" function="internal">
        <lane id=":D0_11_0" index="0" speed="3.65" length="2.34" shape="279.96,0.00,-70.87 279.56,0.80,-70.87 278.36,1.60,-70.87"/>
    </edge>
    <edge id=":D1_0" function="internal">
        <lane id=":D1_0_0" index="0" speed="13.89" length="14.62" shape="317.58,101.60,156.83 302.97,101.60,156.83"/>
    </edge>
    <edge id=":D1_1" function="internal">
        <lane id=":D1_1_0" index="0" speed="9.02" length="5.58" shape="317.58,101.60,156.83 314.07,101.03,156.83 312.33,100.00,156.83"/>
    </edge>
    <edge id=":D1_2" function="internal">
        <lane id=":D1_2_0" index="0" speed="3.65" length="2.34" shape="317.58,101.60,156.83 316.38,100.80,156.83 315.98,100.00,156.83"/>
    </edge>
    <edge id=":D1_9" function="internal">
        <lane id=":D1_9_0" index="0" speed="9.02" length="9.14" shape="312.33,100.00,156.83 311.21,99.33,156.83 309.02,96.50,156.83 307.50,92.52,156.83"/>
    </edge>
    <edge id=":D1_10" function="internal">
        <lane id=":D1_10_0" index="0" speed="3.65" length="2.34" shape="315.98,100.00,156.83 316.38,99.20,156.83 317.58,98.40,156.83"/>
    </edge>
    <edge id=":D1_3" function="internal">
        <lane id=":D1_3_0" index="0" speed="7.70" length="10.48" shape="310.59,91.71,156.83 311.69,94.64,156.83 313.22,96.73,156.83 315.19,97.98,156.83 317.58,98.40,156.83"/>
    </edge>
    <edge id=":D1_4" function="internal">
        <lane id=":D1_4_0" index="0" speed="7.62" length="15.27" shape="310.59,91.71,156.83 311.09,96.04,156.83 309.99,99.13,156.83 307.28,100.98,156.83 302.97,101.60,156.83"/>
    </edge>
    <edge id=":D1_5" function="internal">
        <lane id=":D1_5_0" index="0" speed="3.65" length="4.67" shape="310.59,91.71,156.83 310.12,93.07,156.83 309.45,93.67,156.83 308.58,93.48,156.83 307.50,92.52,156.83"/>
    </edge>
    <edge id=":D1_6" function="internal">
        <lane id=":D1_6_0" index="0" speed="6.02" length="9.07" shape="302.97,98.40,156.83 305.53,98.03,156.83 307.14,96.93,156.83 307.79,95.10,156.83 307.50,92.52,156.83"/>
    </edge>
    <edge id=":D1_7" function="internal">
        <lane id=":D1_7_0" index="0" speed="13.89" length="14.62" shape="302.97,98.40,156.83 317.58,98.40,156.83"/>
    </edge>
    <edge id=":D1_8" function="internal">
        <lane id=":D1_8_0" index="0" speed="3.65" length="2.34" shape="302.97,98.40,156.83 304.17,99.20,156.83 304.57,100.00,156.83"/>
    </edge>
    <edge id=":D1_11" function="internal">
        <lane id=":D1_11_0" index="0" speed="3.65" length="2.34" shape="304.57,100.00,156.83 304.17,100.80,156.83 302.97,101.60,156.83"/>
    </edge>
    <edge id=":E0_0" function="internal">
        <lane id=":E0_0_0" index="0" speed="7.85" length="10.66" shape="390.13,8.39,-14.65 388.94,5.42,-14.65 387.34,3.30,-14.65 385.35,2.02,-14.65 382.95,1.60,-14.65"/>
    </edge>
    <edge id=":E0_1" function="internal">
        <lane id=":E0_1_0" index="0" speed="7.59" length="15.41" shape="390.13,8.39,-14.65 389.50,4.02,-14.65 390.54,0.90,-14.65 393.25,-0.98,-14.65 397.62,-1.60,-14.65"/>
    </edge>
    <edge id=":E0_2" function="internal">
        <lane id=":E0_2_0" index="0" speed="3.65" length="4.67" shape="390.13,8.39,-14.65 390.56,7.01,-14.65 391.22,6.40,-14.65 392.10,6.56,-14.65 393.20,7.49,-14.65"/>
    </edge>
    <edge id=":E0_3" function="internal">
        <lane id=":E0_3_0" index="0" speed="5.98" length="9.08" shape="397.62,1.60,-14.65 395.04,1.97,-14.65 393.45,3.07,-14.65 392.83,4.91,-14.65 393.20,7.49,-14.65"/>
    </edge>
    <edge id=":E0_4" function="internal">
        <lane id=":E0_4_0" index="0" speed="13.89" length="14.67" shape="397.62,1.60,-14.65 382.95,1.60,-14.65"/>
    </edge>
    <edge id=":E0_5" function="internal">
        <lane id=":E0_5_0" index="0" speed="3.65" length="2.34" shape="397.62,1.60,-14.65 396.42,0.80,-14.65 396.02,0.00,-14.65"/>
    </edge>
    <edge id=":E0_9" function="internal">
        <lane id=":E0_9_0" index="0" speed="3.65" length="2.34" shape="396.02,0.00,-14.65 396.42,-0.80,-14.65 397.62,-1.60,-14.65"/>
    </edge>
    <edge id=":E0_6" function="internal">
        <lane id=":E0_6_0" index="0" speed="13.89" length="14.67" shape="382.95,-1.60,-14.65 397.62,-1.60,-14.65"/>
    </edge>
    <edge id=":E0_7" function="internal">
        <lane id=":E0_7_0" index="0" speed="9.16" length="5.56" shape="382.95,-1.60,-14.65 386.44,-1.03,-14.65 388.18,0.00,-14.65"/>
    </edge>
    <edge id=":E0_8" function="internal">
        <lane id=":E0_8_0" index="0" speed="3.65" length="2.34" shape="382.95,-1.60,-14.65 384.15,-0.80,-14.65 384.55,0.00,-14.65"/>
    </edge>
    <edge id=":E0_10" function="internal">
        <lane id=":E0_10_0" index="0" speed="9.16" length="9.24" shape="388.18,0.00,-14.65 389.31,0.67,-14.65 391.57,3.51,-14.65 393.20,7.49,-14.65"/>
    </edge>
    <edge id=":E0_11" function="internal">
        <lane id=":E0_11_0" index="0" speed="3.65" length="2.34" shape="384.55,0.00,-14.65 384.15,0.80,-14.65 382.95,1.60,-14.65"/>
    </edge>
    <edge id=":E1_0" function="internal">
        <lane id=":E1_0_0" index="0" speed="13.89" length="14.67" shape="425.00,101.60,44.98 410.33,101.60,44.98"/>
    </edge>
    <edge id=":E1_1" function="internal">
        <lane id=":E1_1_0" index="0" speed="9.16" length="5.56" shape="425.00,101.60,44.98 421.51,101.03,44.98 419.77,100.00,44.98"/>
    </edge>
    <edge id=":E1_2" function="internal">
        <lane id=":E1_2_0" index="0" speed="3.65" length="2.34" shape="425.00,101.60,44.98 423.80,100.80,44.98 423.40,100.00,44.98"/>
    </edge>
    <edge id=":E1_9" function="internal">
        <lane id=":E1_9_0" index="0" speed="9.16" length="9.24" shape="419.77,100.00,44.98 418.63,99.33,44.98 416.38,96.49,44.98 414.74,92.51,44.98"/>
    </edge>
    <edge id=":E1_10" function="internal">
        <lane id=":E1_10_0" index="0" speed="3.65" length="2.34" shape="423.40,100.00,44.98 423.80,99.20,44.98 425.00,98.40,44.98"/>
    </edge>
    <edge id=":E1_3" function="internal">
        <lane id=":E1_3_0" index="0" speed="7.85" length="10.66" shape="417.81,91.61,44.98 419.01,94.58,44.98 420.60,96.70,44.98 422.60,97.98,44.98 425.00,98.40,44.98"/>
    </edge>
    <edge id=":E1_4" function="internal">
        <lane id=":E1_4_0" index="0" speed="7.59" length="15.41" shape="417.81,91.61,44.98 418.44,95.98,44.98 417.40,99.10,44.98 414.70,100.98,44.98 410.33,101.60,44.98"/>
    </edge>
    <edge id=":E1_5" function="internal">
        <lane id=":E1_5_0" index="0" speed="3.65" length="4.67" shape="417.81,91.61,44.98 417.38,92.99,44.98 416.73,93.60,44.98 415.85,93.44,44.98 414.74,92.51,44.98"/>
    </edge>
    <edge id=":E1_6" function="internal">
        <lane id=":E1_6_0" index="0" speed="5.98" length="9.08" shape="410.33,98.40,44.98 412.91,98.03,44.98 414.50,96.93,44.98 415.11,95.09,44.98 414.74,92.51,44.98"/>
    </edge>
    <edge id=":E1_7" function="internal">
        <lane id=":E1_7_0" index="0" speed="13.89" length="14.67" shape="410.33,98.40,44.98 425.00,98.40,44.98"/>
    </edge>
    <edge id=":E1_8" function="internal">
        <lane id=":E1_8_0" index="0" speed="3.65" length="2.34" shape="410.33,98.40,44.98 411.53,99.20,44.98 411.93,100.00,44.98"/>
    </edge>
    <edge id=":E1_11" function="internal">
        <lane id=":E1_11_0" index="0" speed="3.65" length="2.34" shape="411.93,100.00,44.98 411.53,100.80,44.98 410.33,101.60,44.98"/>
    </edge>
    <edge id=":F0_0" function="internal">
        <lane id=":F0_0_0" index="0" speed="6.14" length="17.94" shape="531.57,1.60,19.82 530.33,8.12,36.48"/>
    </edge>
    <edge id=":F0_1" function="internal">
        <lane id=":F0_1_0" index="0" speed="13.89" length="18.98" shape="531.57,1.60,19.82 522.49,1.60,36.48"/>
    </edge>
    <edge id=":F0_2" function="internal">
        <lane id=":F0_2_0" index="0" speed="3.24" length="1.60" shape="531.57,1.60,19.82 531.57,0.00,19.82"/>
    </edge>
    <edge id=":F0_9" function="internal">
        <lane id=":F0_9_0" index="0" speed="3.24" length="1.60" shape="531.57,0.00,19.82 531.57,-1.60,19.82"/>
    </edge>
    <edge id=":F0_3" function="internal">
        <lane id=":F0_3_0" index="0" speed="13.89" length="18.98" shape="522.49,-1.60,36.48 531.57,-1.60,19.82"/>
    </edge>
    <edge id=":F0_4" function="internal">
        <lane id=":F0_4_0" index="0" speed="7.67" length="6.04" shape="522.49,-1.60,36.48 526.71,-0.99,36.48 528.19,-0.00,36.48"/>
    </edge>
    <edge id=":F0_5" function="internal">
        <lane id=":F0_5_0" index="0" speed="3.65" length="2.34" shape="522.49,-1.60,36.48 523.69,-0.80,36.48 524.09,0.00,36.48"/>
    </edge>
    <edge id=":F0_10" function="internal">
        <lane id=":F0_10_0" index="0" speed="7.67" length="9.03" shape="528.19,-0.00,36.48 529.42,0.83,36.48 530.63,3.87,36.48 530.33,8.12,36.48"/>
    </edge>
    <edge id=":F0_11" function="internal">
        <lane id=":F0_11_0" index="0" speed="3.65" length="2.34" shape="524.09,0.00,36.48 523.69,0.80,36.48 522.49,1.60,36.48"/>
    </edge>
    <edge id=":F0_6" function="internal">
        <lane id=":F0_6_0" index="0" speed="6.10" length="9.06" shape="527.21,7.45,36.48 527.38,4.89,36.48 526.66,3.06,36.48 525.03,1.97,36.48 522.49,1.60,36.48"/>
    </edge>
    <edge id=":F0_7" function="internal">
        <lane id=":F0_7_0" index="0" speed="7.40" length="19.46" shape="527.21,7.45,36.48 531.57,-1.60,19.82"/>
    </edge>
    <edge id=":F0_8" function="internal">
        <lane id=":F0_8_0" index="0" speed="3.65" length="4.67" shape="527.21,7.45,36.48 528.24,6.44,36.48 529.11,6.22,36.48 529.80,6.78,36.48 530.33,8.12,36.48"/>
    </edge>
    <edge id=":F1_0" function="internal">
        <lane id=":F1_0_0" index="0" speed="13.89" length="14.55" shape="516.80,101.60,222.15 502.25,101.60,222.15"/>
    </edge>
    <edge id=":F1_1" function="internal">
        <lane id=":F1_1_0" index="0" speed="7.67" length="6.04" shape="516.80,101.60,222.15 512.58,100.99,222.15 511.10,100.00,222.15"/>
    </edge>
    <edge id=":F1_2" function="internal">
        <lane id=":F1_2_0" index="0" speed="3.65" length="2.34" shape="516.80,101.60,222.15 515.60,100.80,222.15 515.20,100.00,222.15"/>
    </edge>
    <edge id=":F1_9" function="internal">
        <lane id=":F1_9_0" index="0" speed="7.67" length="9.03" shape="511.10,100.00,222.15 509.86,99.17,222.15 508.65,96.13,222.15 508.95,91.88,222.15"/>
    </edge>
    <edge id=":F1_10" function="internal">
        <lane id=":F1_10_0" index="0" speed="3.65" length="2.34" shape="515.20,100.00,222.15 515.60,99.20,222.15 516.80,98.40,222.15"/>
    </edge>
    <edge id=":F1_3" function="internal">
        <lane id=":F1_3_0" index="0" speed="6.10" length="9.06" shape="512.08,92.55,222.15 511.90,95.11,222.15 512.63,96.94,222.15 514.26,98.03,222.15 516.80,98.40,222.15"/>
    </edge>
    <edge id=":F1_4" function="internal">
        <lane id=":F1_4_0" index="0" speed="8.81" length="14.60" shape="512.08,92.55,222.15 510.73,96.51,222.15 508.64,99.34,222.15 505.82,101.03,222.15 502.25,101.60,222.15"/>
    </edge>
    <edge id=":F1_5" function="internal">
        <lane id=":F1_5_0" index="0" speed="3.65" length="4.67" shape="512.08,92.55,222.15 511.04,93.56,222.15 510.18,93.78,222.15 509.48,93.22,222.15 508.95,91.88,222.15"/>
    </edge>
    <edge id=":F1_6" function="internal">
        <lane id=":F1_6_0" index="0" speed="7.46" length="10.21" shape="502.25,98.40,222.15 504.65,97.99,222.15 506.57,96.77,222.15 508.00,94.73,222.15 508.95,91.88,222.15"/>
    </edge>
    <edge id=":F1_7" function="internal">
        <lane id=":F1_7_0" index="0" speed="13.89" length="14.55" shape="502.25,98.40,222.15 516.80,98.40,222.15"/>
    </edge>
    <edge id=":F1_8" function="internal">
        <lane id=":F1_8_0" index="0" speed="3.65" length="2.34" shape="502.25,98.40,222.15 503.45,99.20,222.15 503.85,100.00,222.15"/>
    </edge>
    <edge id=":F1_11" function="internal">
        <lane id=":F1_11_0" index="0" speed="3.65" length="2.34" shape="503.85,100.00,222.15 503.45,100.80,222.15 502.25,101.60,222.15"/>
    </edge>
    <edge id=":G0_0" function="internal">
        <lane id=":G0_0_0" index="0" speed="7.16" length="18.39" shape="534.64,8.75,3.16 531.59,1.60,19.82"/>
    </edge>
    <edge id=":G0_1" function="internal">
        <lane id=":G0_1_0" index="0" speed="7.48" length="16.00" shape="534.64,8.75,3.16 533.44,4.22,3.16 534.19,0.99,3.16 536.88,-0.95,3.16 541.52,-1.60,3.16"/>
    </edge>
    <edge id=":G0_2" function="internal">
        <lane id=":G0_2_0" index="0" speed="3.65" length="4.67" shape="534.64,8.75,3.16 534.92,7.33,3.16 535.50,6.65,3.16 536.39,6.71,3.16 537.59,7.51,3.16"/>
    </edge>
    <edge id=":G0_3" function="internal">
        <lane id=":G0_3_0" index="0" speed="5.82" length="9.14" shape="541.52,1.60,3.16 538.87,1.97,3.16 537.33,3.08,3.16 536.91,4.92,3.16 537.59,7.51,3.16"/>
    </edge>
    <edge id=":G0_4" function="internal">
        <lane id=":G0_4_0" index="0" speed="13.89" length="19.40" shape="541.52,1.60,3.16 531.59,1.60,19.82"/>
    </edge>
    <edge id=":G0_5" function="internal">
        <lane id=":G0_5_0" index="0" speed="3.65" length="2.34" shape="541.52,1.60,3.16 540.32,0.80,3.16 539.92,0.00,3.16"/>
    </edge>
    <edge id=":G0_9" function="internal">
        <lane id=":G0_9_0" index="0" speed="3.65" length="2.34" shape="539.92,0.00,3.16 540.32,-0.80,3.16 541.52,-1.60,3.16"/>
    </edge>
    <edge id=":G0_6" function="internal">
        <lane id=":G0_6_0" index="0" speed="13.89" length="19.40" shape="531.59,-1.60,19.82 541.52,-1.60,3.16"/>
    </edge>
    <edge id=":G0_7" function="internal">
        <lane id=":G0_7_0" index="0" speed="8.38" length="1.92" shape="531.59,-1.60,19.82 532.17,-0.72,18.22"/>
    </edge>
    <edge id=":G0_8" function="internal">
        <lane id=":G0_8_0" index="0" speed="3.24" length="1.60" shape="531.59,-1.60,19.82 531.59,0.00,19.82"/>
    </edge>
    <edge id=":G0_10" function="internal">
        <lane id=":G0_10_0" index="0" speed="8.38" length="18.00" shape="532.17,-0.72,18.22 537.59,7.51,3.16"/>
    </edge>
    <edge id=":G0_11" function="internal">
        <lane id=":G0_11_0" index="0" speed="3.24" length="1.60" shape="531.59,0.00,19.82 531.59,1.60,19.82"/>
    </edge>
    <edge id=":G1_0" function="internal">
        <lane id=":G1_0_0" index="0" speed="13.89" length="14.94" shape="580.86,101.60,-99.83 565.92,101.60,-99.83"/>
    </edge>
    <edge id=":G1_1" function="internal">
        <lane id=":G1_1_0" index="0" speed="9.80" length="5.50" shape="580.86,101.60,-99.83 577.47,101.03,-99.83 575.68,100.00,-99.83"/>
    </edge>
    <edge id=":G1_2" function="internal">
        <lane id=":G1_2_0" index="0" speed="3.65" length="2.34" shape="580.86,101.60,-99.83 579.66,100.80,-99.83 579.26,100.00,-99.83"/>
    </edge>
    <edge id=":G1_9" function="internal">
        <lane id=":G1_9_0" index="0" speed="9.80" length="9.69" shape="575.68,100.00,-99.83 574.51,99.32,-99.83 571.97,96.48,-99.83 569.84,92.49,-99.83"/>
    </edge>
    <edge id=":G1_10" function="internal">
        <lane id=":G1_10_0" index="0" speed="3.65" length="2.34" shape="579.26,100.00,-99.83 579.66,99.20,-99.83 580.86,98.40,-99.83"/>
    </edge>
    <edge id=":G1_3" function="internal">
        <lane id=":G1_3_0" index="0" speed="8.57" length="11.42" shape="572.79,91.25,-99.83 574.42,94.38,-99.83 576.31,96.61,-99.83 578.46,97.95,-99.83 580.86,98.40,-99.83"/>
    </edge>
    <edge id=":G1_4" function="internal">
        <lane id=":G1_4_0" index="0" speed="7.48" length="16.00" shape="572.79,91.25,-99.83 573.99,95.78,-99.83 573.25,99.01,-99.83 570.55,100.95,-99.83 565.92,101.60,-99.83"/>
    </edge>
    <edge id=":G1_5" function="internal">
        <lane id=":G1_5_0" index="0" speed="3.65" length="4.67" shape="572.79,91.25,-99.83 572.52,92.67,-99.83 571.94,93.35,-99.83 571.04,93.29,-99.83 569.84,92.49,-99.83"/>
    </edge>
    <edge id=":G1_6" function="internal">
        <lane id=":G1_6_0" index="0" speed="5.82" length="9.14" shape="565.92,98.40,-99.83 568.56,98.03,-99.83 570.10,96.92,-99.83 570.53,95.08,-99.83 569.84,92.49,-99.83"/>
    </edge>
    <edge id=":G1_7" function="internal">
        <lane id=":G1_7_0" index="0" speed="13.89" length="14.94" shape="565.92,98.40,-99.83 580.86,98.40,-99.83"/>
    </edge>
    <edge id=":G1_8" function="internal">
        <lane id=":G1_8_0" index="0" speed="3.65" length="2.34" shape="565.92,98.40,-99.83 567.12,99.20,-99.83 567.52,100.00,-99.83"/>