<?xml version="1.0" encoding="UTF-8"?>

<!-- generated on 07/22/20 22:23:42 by Eclipse SUMO netgenerate Version 1.5.0
<configuration xmlns:xsi="http://www.w3.org/2001/XMLSchema-instance" xsi:noNamespaceSchemaLocation="http://sumo.dlr.de/xsd/netgenerateConfiguration.xsd">

    <grid_network>
        <grid value="true"/>
        <grid.x-number value="20"/>
        <grid.y-number value="2"/>
    </grid_network>

    <output>
        <output-file value="8.net.xml"/>
    </output>

    <processing>
        <perturb-x value="23"/>
        <perturb-z value="100"/>
    </processing>

    <random_number>
        <seed value="1243412"/>
    </random_number>

</configuration>
-->

<net version="1.3" junctionCornerDetail="5" limitTurnSpeed="5.50" xmlns:xsi="http://www.w3.org/2001/XMLSchema-instance" xsi:noNamespaceSchemaLocation="http://sumo.dlr.de/xsd/net_file.xsd">

    <location netOffset="13.25,0.00" convBoundary="0.00,0.00,1888.39,100.00" origBoundary="-13.25,0.00,1875.15,100.00" projParameter="!"/>

    <edge id=":A0_0" function="internal">
        <lane id=":A0_0_0" index="0" speed="6.09" length="9.55" shape="-0.41,4.49,143.03 -0.76,1.82,142.54 -0.10,-0.08,142.18 1.55,-1.22,141.81 4.21,-1.60,141.32"/>
    </edge>
    <edge id=":A0_1" function="internal">
        <lane id=":A0_1_0" index="0" speed="3.91" length="3.83" shape="4.21,1.60,140.83 3.33,1.73,141.46 2.77,2.11,141.93 2.56,2.74,142.40 2.67,3.63,143.03"/>
    </edge>
    <edge id=":A1_0" function="internal">
        <lane id=":A1_0_0" index="0" speed="6.15" length="9.10" shape="30.28,101.60,23.96 28.62,101.38,25.71 27.30,100.72,27.25 26.31,99.62,28.79 25.66,98.09,30.54"/>
    </edge>
    <edge id=":A1_1" function="internal">
        <lane id=":A1_1_0" index="0" speed="3.94" length="6.53" shape="28.74,97.23,30.54 28.96,97.74,28.89 29.29,98.11,27.44 29.73,98.33,25.99 30.28,98.40,24.35"/>
    </edge>
    <edge id=":B0_0" function="internal">
        <lane id=":B0_0_0" index="0" speed="7.68" length="10.47" shape="123.03,1.60,-34.38 120.63,2.02,-34.38 118.67,3.27,-34.38 117.14,5.36,-34.38 116.05,8.28,-34.38"/>
    </edge>
    <edge id=":B0_1" function="internal">
        <lane id=":B0_1_0" index="0" speed="13.89" length="14.61" shape="123.03,1.60,-34.38 108.41,1.60,-34.38"/>
    </edge>
    <edge id=":B0_2" function="internal">
        <lane id=":B0_2_0" index="0" speed="3.65" length="2.34" shape="123.03,1.60,-34.38 121.83,0.80,-34.38 121.43,0.00,-34.38"/>
    </edge>
    <edge id=":B0_9" function="internal">
        <lane id=":B0_9_0" index="0" speed="3.65" length="2.34" shape="121.43,0.00,-34.38 121.83,-0.80,-34.38 123.03,-1.60,-34.38"/>
    </edge>
    <edge id=":B0_3" function="internal">
        <lane id=":B0_3_0" index="0" speed="13.89" length="14.61" shape="108.41,-1.60,-34.38 123.03,-1.60,-34.38"/>
    </edge>
    <edge id=":B0_4" function="internal">
        <lane id=":B0_4_0" index="0" speed="7.62" length="6.09" shape="108.41,-1.60,-34.38 112.72,-0.98,-34.38 114.16,-0.00,-34.38"/>
    </edge>
    <edge id=":B0_5" function="internal">
        <lane id=":B0_5_0" index="0" speed="3.65" length="2.34" shape="108.41,-1.60,-34.38 109.61,-0.80,-34.38 110.01,0.00,-34.38"/>
    </edge>
    <edge id=":B0_10" function="internal">
        <lane id=":B0_10_0" index="0" speed="7.62" length="9.17" shape="114.16,-0.00,-34.38 115.43,0.87,-34.38 116.54,3.96,-34.38 116.05,8.28,-34.38"/>
    </edge>
    <edge id=":B0_11" function="internal">
        <lane id=":B0_11_0" index="0" speed="3.65" length="2.34" shape="110.01,0.00,-34.38 109.61,0.80,-34.38 108.41,1.60,-34.38"/>
    </edge>
    <edge id=":B0_6" function="internal">
        <lane id=":B0_6_0" index="0" speed="6.03" length="9.07" shape="112.95,7.47,-34.38 113.24,4.90,-34.38 112.58,3.07,-34.38 110.97,1.97,-34.38 108.41,1.60,-34.38"/>
    </edge>
    <edge id=":B0_7" function="internal">
        <lane id=":B0_7_0" index="0" speed="9.01" length="14.72" shape="112.95,7.47,-34.38 114.47,3.50,-34.38 116.65,0.67,-34.38 119.51,-1.03,-34.38 123.03,-1.60,-34.38"/>
    </edge>
    <edge id=":B0_8" function="internal">
        <lane id=":B0_8_0" index="0" speed="3.65" length="4.67" shape="112.95,7.47,-34.38 114.03,6.51,-34.38 114.91,6.33,-34.38 115.58,6.92,-34.38 116.05,8.28,-34.38"/>
    </edge>
    <edge id=":B1_0" function="internal">
        <lane id=":B1_0_0" index="0" speed="13.89" length="14.61" shape="98.63,101.60,-59.18 84.02,101.60,-59.18"/>
    </edge>
    <edge id=":B1_1" function="internal">
        <lane id=":B1_1_0" index="0" speed="7.62" length="6.09" shape="98.63,101.60,-59.18 94.33,100.98,-59.18 92.89,100.00,-59.18"/>
    </edge>
    <edge id=":B1_2" function="internal">
        <lane id=":B1_2_0" index="0" speed="3.65" length="2.34" shape="98.63,101.60,-59.18 97.43,100.80,-59.18 97.03,100.00,-59.18"/>
    </edge>
    <edge id=":B1_9" function="internal">
        <lane id=":B1_9_0" index="0" speed="7.62" length="9.17" shape="92.89,100.00,-59.18 91.62,99.13,-59.18 90.51,96.04,-59.18 91.00,91.72,-59.18"/>
    </edge>
    <edge id=":B1_10" function="internal">
        <lane id=":B1_10_0" index="0" speed="3.65" length="2.34" shape="97.03,100.00,-59.18 97.43,99.20,-59.18 98.63,98.40,-59.18"/>
    </edge>
    <edge id=":B1_3" function="internal">
        <lane id=":B1_3_0" index="0" speed="6.03" length="9.07" shape="94.09,92.53,-59.18 93.80,95.10,-59.18 94.46,96.93,-59.18 96.07,98.03,-59.18 98.63,98.40,-59.18"/>
    </edge>
    <edge id=":B1_4" function="internal">
        <lane id=":B1_4_0" index="0" speed="9.01" length="14.72" shape="94.09,92.53,-59.18 92.58,96.50,-59.18 90.39,99.33,-59.18 87.54,101.03,-59.18 84.02,101.60,-59.18"/>
    </edge>
    <edge id=":B1_5" function="internal">
        <lane id=":B1_5_0" index="0" speed="3.65" length="4.67" shape="94.09,92.53,-59.18 93.02,93.49,-59.18 92.14,93.67,-59.18 91.47,93.08,-59.18 91.00,91.72,-59.18"/>
    </edge>
    <edge id=":B1_6" function="internal">
        <lane id=":B1_6_0" index="0" speed="7.68" length="10.47" shape="84.02,98.40,-59.18 86.42,97.98,-59.18 88.38,96.73,-59.18 89.91,94.64,-59.18 91.00,91.72,-59.18"/>
    </edge>
    <edge id=":B1_7" function="internal">
        <lane id=":B1_7_0" index="0" speed="13.89" length="14.61" shape="84.02,98.40,-59.18 98.63,98.40,-59.18"/>
    </edge>
    <edge id=":B1_8" function="internal">
        <lane id=":B1_8_0" index="0" speed="3.65" length="2.34" shape="84.02,98.40,-59.18 85.22,99.20,-59.18 85.62,100.00,-59.18"/>
    </edge>
    <edge id=":B1_11" function="internal">
        <lane id=":B1_11_0" index="0" speed="3.65" length="2.34" shape="85.62,100.00,-59.18 85.22,100.80,-59.18 84.02,101.60,-59.18"/>
    </edge>
    <edge id=":C0_0" function="internal">
        <lane id=":C0_0_0" index="0" speed="7.62" length="10.40" shape="192.86,8.24,-45.13 191.81,5.34,-45.13 190.31,3.26,-45.13 188.36,2.02,-45.13 185.96,1.60,-45.13"/>
    </edge>
    <edge id=":C0_1" function="internal">
        <lane id=":C0_1_0" index="0" speed="7.63" length="15.21" shape="192.86,8.24,-45.13 192.42,3.94,-45.13 193.56,0.86,-45.13 196.27,-0.98,-45.13 200.55,-1.60,-45.13"/>
    </edge>
    <edge id=":C0_2" function="internal">
        <lane id=":C0_2_0" index="0" speed="3.65" length="4.67" shape="192.86,8.24,-45.13 193.35,6.88,-45.13 194.03,6.30,-45.13 194.90,6.50,-45.13 195.97,7.47,-45.13"/>
    </edge>
    <edge id=":C0_3" function="internal">
        <lane id=":C0_3_0" index="0" speed="6.04" length="9.07" shape="200.55,1.60,-45.13 198.00,1.97,-45.13 196.38,3.07,-45.13 195.71,4.90,-45.13 195.97,7.47,-45.13"/>
    </edge>
    <edge id=":C0_4" function="internal">
        <lane id=":C0_4_0" index="0" speed="13.89" length="14.60" shape="200.55,1.60,-45.13 185.96,1.60,-45.13"/>
    </edge>
    <edge id=":C0_5" function="internal">
        <lane id=":C0_5_0" index="0" speed="3.65" length="2.34" shape="200.55,1.60,-45.13 199.35,0.80,-45.13 198.95,0.00,-45.13"/>
    </edge>
    <edge id=":C0_9" function="internal">
        <lane id=":C0_9_0" index="0" speed="3.65" length="2.34" shape="198.95,0.00,-45.13 199.35,-0.80,-45.13 200.55,-1.60,-45.13"/>
    </edge>
    <edge id=":C0_6" function="internal">
        <lane id=":C0_6_0" index="0" speed="13.89" length="14.60" shape="185.96,-1.60,-45.13 200.55,-1.60,-45.13"/>
    </edge>
    <edge id=":C0_7" function="internal">
        <lane id=":C0_7_0" index="0" speed="8.96" length="5.59" shape="185.96,-1.60,-45.13 189.49,-1.03,-45.13 191.22,-0.00,-45.13"/>
    </edge>
    <edge id=":C0_8" function="internal">
        <lane id=":C0_8_0" index="0" speed="3.65" length="2.34" shape="185.96,-1.60,-45.13 187.16,-0.80,-45.13 187.56,0.00,-45.13"/>
    </edge>
    <edge id=":C0_10" function="internal">
        <lane id=":C0_10_0" index="0" speed="8.96" length="9.10" shape="191.22,-0.00,-45.13 192.34,0.67,-45.13 194.50,3.50,-45.13 195.97,7.47,-45.13"/>
    </edge>
    <edge id=":C0_11" function="internal">
        <lane id=":C0_11_0" index="0" speed="3.65" length="2.34" shape="187.56,0.00,-45.13 187.16,0.80,-45.13 185.96,1.60,-45.13"/>
    </edge>
    <edge id=":C1_0" function="internal">
        <lane id=":C1_0_0" index="0" speed="13.89" length="14.60" shape="223.88,101.60,-78.26 209.29,101.60,-78.26"/>
    </edge>
    <edge id=":C1_1" function="internal">
        <lane id=":C1_1_0" index="0" speed="8.96" length="5.59" shape="223.88,101.60,-78.26 220.35,101.03,-78.26 218.62,100.00,-78.26"/>
    </edge>
    <edge id=":C1_2" function="internal">
        <lane id=":C1_2_0" index="0" speed="3.65" length="2.34" shape="223.88,101.60,-78.26 222.68,100.80,-78.26 222.28,100.00,-78.26"/>
    </edge>
    <edge id=":C1_9" function="internal">
        <lane id=":C1_9_0" index="0" speed="8.96" length="9.10" shape="218.62,100.00,-78.26 217.50,99.33,-78.26 215.34,96.50,-78.26 213.87,92.53,-78.26"/>
    </edge>
    <edge id=":C1_10" function="internal">
        <lane id=":C1_10_0" index="0" speed="3.65" length="2.34" shape="222.28,100.00,-78.26 222.68,99.20,-78.26 223.88,98.40,-78.26"/>
    </edge>
    <edge id=":C1_3" function="internal">
        <lane id=":C1_3_0" index="0" speed="7.62" length="10.40" shape="216.98,91.76,-78.26 218.03,94.66,-78.26 219.53,96.74,-78.26 221.48,97.98,-78.26 223.88,98.40,-78.26"/>
    </edge>
    <edge id=":C1_4" function="internal">
        <lane id=":C1_4_0" index="0" speed="7.63" length="15.21" shape="216.98,91.76,-78.26 217.41,96.06,-78.26 216.28,99.14,-78.26 213.57,100.98,-78.26 209.29,101.60,-78.26"/>
    </edge>
    <edge id=":C1_5" function="internal">
        <lane id=":C1_5_0" index="0" speed="3.65" length="4.67" shape="216.98,91.76,-78.26 216.49,93.12,-78.26 215.81,93.70,-78.26 214.94,93.50,-78.26 213.87,92.53,-78.26"/>
    </edge>
    <edge id=":C1_6" function="internal">
        <lane id=":C1_6_0" index="0" speed="6.04" length="9.07" shape="209.29,98.40,-78.26 211.84,98.03,-78.26 213.46,96.93,-78.26 214.13,95.10,-78.26 213.87,92.53,-78.26"/>
    </edge>
    <edge id=":C1_7" function="internal">
        <lane id=":C1_7_0" index="0" speed="13.89" length="14.60" shape="209.29,98.40,-78.26 223.88,98.40,-78.26"/>
    </edge>
    <edge id=":C1_8" function="internal">
        <lane id=":C1_8_0" index="0" speed="3.65" length="2.34" shape="209.29,98.40,-78.26 210.49,99.20,-78.26 210.89,100.00,-78.26"/>
    </edge>
    <edge id=":C1_11" function="internal">
        <lane id=":C1_11_0" index="0" speed="3.65" length="2.34" shape="210.89,100.00,-78.26 210.49,100.80,-78.26 209.29,101.60,-78.26"/>
    </edge>
    <edge id=":D0_0" function="internal">
        <lane id=":D0_0_0" index="0" speed="9.80" length="12.62" shape="351.39,1.60,-99.22 348.96,2.07,-99.22 346.56,3.48,-99.22 344.20,5.83,-99.22 341.87,9.12,-99.22"/>
    </edge>
    <edge id=":D0_1" function="internal">
        <lane id=":D0_1_0" index="0" speed="13.89" length="15.51" shape="351.39,1.60,-99.22 335.87,1.60,-99.22"/>
    </edge>
    <edge id=":D0_2" function="internal">
        <lane id=":D0_2_0" index="0" speed="3.65" length="2.34" shape="351.39,1.60,-99.22 350.19,0.80,-99.22 349.79,0.00,-99.22"/>
    </edge>
    <edge id=":D0_9" function="internal">
        <lane id=":D0_9_0" index="0" speed="3.65" length="2.34" shape="349.79,0.00,-99.22 350.19,-0.80,-99.22 351.39,-1.60,-99.22"/>
    </edge>
    <edge id=":D0_3" function="internal">
        <lane id=":D0_3_0" index="0" speed="13.89" length="15.51" shape="335.87,-1.60,-99.22 351.39,-1.60,-99.22"/>
    </edge>
    <edge id=":D0_4" function="internal">
        <lane id=":D0_4_0" index="0" speed="7.39" length="6.69" shape="335.87,-1.60,-99.22 340.97,-0.93,-99.22 342.22,0.00,-99.22"/>
    </edge>
    <edge id=":D0_5" function="internal">
        <lane id=":D0_5_0" index="0" speed="3.65" length="2.34" shape="335.87,-1.60,-99.22 337.07,-0.80,-99.22 337.47,0.00,-99.22"/>
    </edge>
    <edge id=":D0_10" function="internal">
        <lane id=":D0_10_0" index="0" speed="7.39" length="10.31" shape="342.22,0.00,-99.22 343.67,1.08,-99.22 343.96,4.43,-99.22 341.87,9.12,-99.22"/>
    </edge>
    <edge id=":D0_11" function="internal">
        <lane id=":D0_11_0" index="0" speed="3.65" length="2.34" shape="337.47,0.00,-99.22 337.07,0.80,-99.22 335.87,1.60,-99.22"/>
    </edge>
    <edge id=":D0_6" function="internal">
        <lane id=":D0_6_0" index="0" speed="5.64" length="9.27" shape="339.14,7.45,-99.22 340.28,4.89,-99.22 340.12,3.06,-99.22 338.65,1.97,-99.22 335.87,1.60,-99.22"/>
    </edge>
    <edge id=":D0_7" function="internal">
        <lane id=":D0_7_0" index="0" speed="10.94" length="15.87" shape="339.14,7.45,-99.22 341.99,3.49,-99.22 344.98,0.66,-99.22 348.12,-1.03,-99.22 351.39,-1.60,-99.22"/>
    </edge>
    <edge id=":D0_8" function="internal">
        <lane id=":D0_8_0" index="0" speed="3.65" length="4.67" shape="339.14,7.45,-99.22 340.45,6.84,-99.22 341.34,6.92,-99.22 341.81,7.68,-99.22 341.87,9.12,-99.22"/>
    </edge>
    <edge id=":D1_0" function="internal">
        <lane id=":D1_0_0" index="0" speed="13.89" length="15.51" shape="293.82,101.60,184.67 278.31,101.60,184.67"/>
    </edge>
    <edge id=":D1_1" function="internal">
        <lane id=":D1_1_0" index="0" speed="7.39" length="6.69" shape="293.82,101.60,184.67 288.73,100.93,184.67 287.48,100.00,184.67"/>
    </edge>
    <edge id=":D1_2" function="internal">
        <lane id=":D1_2_0" index="0" speed="3.65" length="2.34" shape="293.82,101.60,184.67 292.62,100.80,184.67 292.22,100.00,184.67"/>
    </edge>
    <edge id=":D1_9" function="internal">
        <lane id=":D1_9_0" index="0" speed="7.39" length="10.31" shape="287.48,100.00,184.67 286.03,98.92,184.67 285.73,95.57,184.67 287.83,90.88,184.67"/>
    </edge>
    <edge id=":D1_10" function="internal">
        <lane id=":D1_10_0" index="0" speed="3.65" length="2.34" shape="292.22,100.00,184.67 292.62,99.20,184.67 293.82,98.40,184.67"/>
    </edge>
    <edge id=":D1_3" function="internal">
        <lane id=":D1_3_0" index="0" speed="5.64" length="9.27" shape="290.56,92.55,184.67 289.41,95.11,184.67 289.57,96.94,184.67 291.04,98.03,184.67 293.82,98.40,184.67"/>
    </edge>
    <edge id=":D1_4" function="internal">
        <lane id=":D1_4_0" index="0" speed="10.94" length="15.87" shape="290.56,92.55,184.67 287.70,96.51,184.67 284.71,99.34,184.67 281.58,101.03,184.67 278.31,101.60,184.67"/>
    </edge>
    <edge id=":D1_5" function="internal">
        <lane id=":D1_5_0" index="0" speed="3.65" length="4.67" shape="290.56,92.55,184.67 289.24,93.16,184.67 288.35,93.08,184.67 287.88,92.32,184.67 287.83,90.88,184.67"/>
    </edge>
    <edge id=":D1_6" function="internal">
        <lane id=":D1_6_0" index="0" speed="9.80" length="12.62" shape="278.31,98.40,184.67 280.74,97.93,184.67 283.14,96.52,184.67 285.50,94.17,184.67 287.83,90.88,184.67"/>
    </edge>
    <edge id=":D1_7" function="internal">
        <lane id=":D1_7_0" index="0" speed="13.89" length="15.51" shape="278.31,98.40,184.67 293.82,98.40,184.67"/>
    </edge>
    <edge id=":D1_8" function="internal">
        <lane id=":D1_8_0" index="0" speed="3.65" length="2.34" shape="278.31,98.40,184.67 279.51,99.20,184.67 279.91,100.00,184.67"/>
    </edge>
    <edge id=":D1_11" function="internal">
        <lane id=":D1_11_0" index="0" speed="3.65" length="2.34" shape="279.91,100.00,184.67 279.51,100.80,184.67 278.31,101.60,184.67"/>
    </edge>
    <edge id=":E0_0" function="internal">
        <lane id=":E0_0_0" index="0" speed="10.03" length="12.83" shape="457.30,1.60,-63.85 454.86,2.07,-63.85 452.42,3.49,-63.85 449.97,5.86,-63.85 447.52,9.17,-63.85"/>
    </edge>
    <edge id=":E0_1" function="internal">
        <lane id=":E0_1_0" index="0" speed="13.89" length="15.63" shape="457.30,1.60,-63.85 441.67,1.60,-63.85"/>
    </edge>
    <edge id=":E0_2" function="internal">
        <lane id=":E0_2_0" index="0" speed="3.65" length="2.34" shape="457.30,1.60,-63.85 456.10,0.80,-63.85 455.70,0.00,-63.85"/>
    </edge>
    <edge id=":E0_9" function="internal">
        <lane id=":E0_9_0" index="0" speed="3.65" length="2.34" shape="455.70,0.00,-63.85 456.10,-0.80,-63.85 457.30,-1.60,-63.85"/>
    </edge>
    <edge id=":E0_3" function="internal">
        <lane id=":E0_3_0" index="0" speed="13.89" length="15.63" shape="441.67,-1.60,-63.85 457.30,-1.60,-63.85"/>
    </edge>
    <edge id=":E0_4" function="internal">
        <lane id=":E0_4_0" index="0" speed="7.39" length="6.77" shape="441.67,-1.60,-63.85 446.85,-0.93,-63.85 448.09,-0.00,-63.85"/>
    </edge>
    <edge id=":E0_5" function="internal">
        <lane id=":E0_5_0" index="0" speed="3.65" length="2.34" shape="441.67,-1.60,-63.85 442.87,-0.80,-63.85 443.27,0.00,-63.85"/>
    </edge>
    <edge id=":E0_10" function="internal">
        <lane id=":E0_10_0" index="0" speed="7.39" length="10.42" shape="448.09,-0.00,-63.85 449.55,1.09,-63.85 449.77,4.46,-63.85 447.52,9.17,-63.85"/>
    </edge>
    <edge id=":E0_11" function="internal">
        <lane id=":E0_11_0" index="0" speed="3.65" length="2.34" shape="443.27,0.00,-63.85 442.87,0.80,-63.85 441.67,1.60,-63.85"/>
    </edge>
    <edge id=":E0_6" function="internal">
        <lane id=":E0_6_0" index="0" speed="5.62" length="9.30" shape="444.83,7.43,-63.85 446.05,4.88,-63.85 445.93,3.06,-63.85 444.47,1.96,-63.85 441.67,1.60,-63.85"/>
    </edge>
    <edge id=":E0_7" function="internal">
        <lane id=":E0_7_0" index="0" speed="11.16" length="16.01" shape="444.83,7.43,-63.85 447.81,3.48,-63.85 450.88,0.66,-63.85 454.04,-1.04,-63.85 457.30,-1.60,-63.85"/>
    </edge>
    <edge id=":E0_8" function="internal">
        <lane id=":E0_8_0" index="0" speed="3.65" length="4.67" shape="444.83,7.43,-63.85 446.16,6.86,-63.85 447.05,6.96,-63.85 447.50,7.73,-63.85 447.52,9.17,-63.85"/>
    </edge>
    <edge id=":E1_0" function="internal">
        <lane id=":E1_0_0" index="0" speed="13.89" length="15.63" shape="396.52,101.60,22.59 380.89,101.60,22.59"/>
    </edge>
    <edge id=":E1_1" function="internal">
        <lane id=":E1_1_0" index="0" speed="7.39" length="6.77" shape="396.52,101.60,22.59 391.34,100.93,22.59 390.10,100.00,22.59"/>
    </edge>
    <edge id=":E1_2" function="internal">
        <lane id=":E1_2_0" index="0" speed="3.65" length="2.34" shape="396.52,101.60,22.59 395.32,100.80,22.59 394.92,100.00,22.59"/>
    </edge>
    <edge id=":E1_9" function="internal">
        <lane id=":E1_9_0" index="0" speed="7.39" length="10.42" shape="390.10,100.00,22.59 388.64,98.91,22.59 388.42,95.54,22.59 390.68,90.83,22.59"/>
    </edge>
    <edge id=":E1_10" function="internal">
        <lane id=":E1_10_0" index="0" speed="3.65" length="2.34" shape="394.92,100.00,22.59 395.32,99.20,22.59 396.52,98.40,22.59"/>
    </edge>
    <edge id=":E1_3" function="internal">
        <lane id=":E1_3_0" index="0" speed="5.62" length="9.30" shape="393.36,92.57,22.59 392.14,95.12,22.59 392.26,96.94,22.59 393.72,98.04,22.59 396.52,98.40,22.59"/>
    </edge>
    <edge id=":E1_4" function="internal">
        <lane id=":E1_4_0" index="0" speed="11.16" length="16.01" shape="393.36,92.57,22.59 390.38,96.52,22.59 387.31,99.34,22.59 384.15,101.04,22.59 380.89,101.60,22.59"/>
    </edge>
    <edge id=":E1_5" function="internal">
        <lane id=":E1_5_0" index="0" speed="3.65" length="4.67" shape="393.36,92.57,22.59 392.03,93.14,22.59 391.15,93.04,22.59 390.69,92.27,22.59 390.68,90.83,22.59"/>
    </edge>
    <edge id=":E1_6" function="internal">
        <lane id=":E1_6_0" index="0" speed="10.03" length="12.83" shape="380.89,98.40,22.59 383.33,97.93,22.59 385.77,96.51,22.59 388.22,94.14,22.59 390.68,90.83,22.59"/>
    </edge>
    <edge id=":E1_7" function="internal">
        <lane id=":E1_7_0" index="0" speed="13.89" length="15.63" shape="380.89,98.40,22.59 396.52,98.40,22.59"/>
    </edge>
    <edge id=":E1_8" function="internal">
        <lane id=":E1_8_0" index="0" speed="3.65" length="2.34" shape="380.89,98.40,22.59 382.09,99.20,22.59 382.49,100.00,22.59"/>
    </edge>
    <edge id=":E1_11" function="internal">
        <lane id=":E1_11_0" index="0" speed="3.65" length="2.34" shape="382.49,100.00,22.59 382.09,100.80,22.59 380.89,101.60,22.59"/>
    </edge>
    <edge id=":F0_0" function="internal">
        <lane id=":F0_0_0" index="0" speed="8.63" length="11.49" shape="505.42,8.77,70.97 503.75,5.63,70.97 501.84,3.39,70.97 499.68,2.05,70.97 497.28,1.60,70.97"/>
    </edge>
    <edge id=":F0_1" function="internal">
        <lane id=":F0_1_0" index="0" speed="7.47" length="16.05" shape="505.42,8.77,70.97 504.17,4.23,70.97 504.89,0.99,70.97 507.59,-0.95,70.97 512.25,-1.60,70.97"/>
    </edge>
    <edge id=":F0_2" function="internal">
        <lane id=":F0_2_0" index="0" speed="3.65" length="4.67" shape="505.42,8.77,70.97 505.68,7.35,70.97 506.26,6.67,70.97 507.15,6.72,70.97 508.36,7.51,70.97"/>
    </edge>
    <edge id=":F0_3" function="internal">
        <lane id=":F0_3_0" index="0" speed="5.81" length="9.14" shape="512.25,1.60,70.97 509.59,1.97,70.97 508.06,3.08,70.97 507.65,4.92,70.97 508.36,7.51,70.97"/>
    </edge>
    <edge id=":F0_4" function="internal">
        <lane id=":F0_4_0" index="0" speed="13.89" length="14.97" shape="512.25,1.60,70.97 497.28,1.60,70.97"/>
    </edge>
    <edge id=":F0_5" function="internal">
        <lane id=":F0_5_0" index="0" speed="3.65" length="2.34" shape="512.25,1.60,70.97 511.05,0.80,70.97 510.65,0.00,70.97"/>
    </edge>
    <edge id=":F0_9" function="internal">
        <lane id=":F0_9_0" index="0" speed="3.65" length="2.34" shape="510.65,0.00,70.97 511.05,-0.80,70.97 512.25,-1.60,70.97"/>
    </edge>
    <edge id=":F0_6" function="internal">
        <lane id=":F0_6_0" index="0" speed="13.89" length="14.97" shape="497.28,-1.60,70.97 512.25,-1.60,70.97"/>
    </edge>
    <edge id=":F0_7" function="internal">
        <lane id=":F0_7_0" index="0" speed="9.86" length="5.49" shape="497.28,-1.60,70.97 500.66,-1.03,70.97 502.45,-0.00,70.97"/>
    </edge>
    <edge id=":F0_8" function="internal">
        <lane id=":F0_8_0" index="0" speed="3.65" length="2.34" shape="497.28,-1.60,70.97 498.48,-0.80,70.97 498.88,0.00,70.97"/>
    </edge>
    <edge id=":F0_10" function="internal">
        <lane id=":F0_10_0" index="0" speed="9.86" length="9.73" shape="502.45,-0.00,70.97 503.63,0.68,70.97 506.20,3.52,70.97 508.36,7.51,70.97"/>
    </edge>
    <edge id=":F0_11" function="internal">
        <lane id=":F0_11_0" index="0" speed="3.65" length="2.34" shape="498.88,0.00,70.97 498.48,0.80,70.97 497.28,1.60,70.97"/>
    </edge>
    <edge id=":F1_0" function="internal">
        <lane id=":F1_0_0" index="0" speed="13.89" length="14.97" shape="552.56,101.60,-70.35 537.59,101.60,-70.35"/>
    </edge>
    <edge id=":F1_1" function="internal">
        <lane id=":F1_1_0" index="0" speed="9.86" length="5.49" shape="552.56,101.60,-70.35 549.18,101.03,-70.35 547.38,100.00,-70.35"/>
    </edge>
    <edge id=":F1_2" function="internal">
        <lane id=":F1_2_0" index="0" speed="3.65" length="2.34" shape="552.56,101.60,-70.35 551.36,100.80,-70.35 550.96,100.00,-70.35"/>
    </edge>
    <edge id=":F1_9" function="internal">
        <lane id=":F1_9_0" index="0" speed="9.86" length="9.73" shape="547.38,100.00,-70.35 546.21,99.32,-70.35 543.64,96.48,-70.35 541.47,92.49,-70.35"/>
    </edge>
    <edge id=":F1_10" function="internal">
        <lane id=":F1_10_0" index="0" speed="3.65" length="2.34" shape="550.96,100.00,-70.35 551.36,99.20,-70.35 552.56,98.40,-70.35"/>
    </edge>
    <edge id=":F1_3" function="internal">
        <lane id=":F1_3_0" index="0" speed="8.63" length="11.49" shape="544.41,91.23,-70.35 546.08,94.37,-70.35 547.99,96.61,-70.35 550.15,97.95,-70.35 552.56,98.40,-70.35"/>
    </edge>
    <edge id=":F1_4" function="internal">
        <lane id=":F1_4_0" index="0" speed="7.47" length="16.05" shape="544.41,91.23,-70.35 545.66,95.77,-70.35 544.94,99.01,-70.35 542.25,100.95,-70.35 537.59,101.60,-70.35"/>
    </edge>
    <edge id=":F1_5" function="internal">
        <lane id=":F1_5_0" index="0" speed="3.65" length="4.67" shape="544.41,91.23,-70.35 544.15,92.65,-70.35 543.58,93.33,-70.35 542.68,93.28,-70.35 541.47,92.49,-70.35"/>
    </edge>
    <edge id=":F1_6" function="internal">
        <lane id=":F1_6_0" index="0" speed="5.81" length="9.14" shape="537.59,98.40,-70.35 540.24,98.03,-70.35 541.77,96.92,-70.35 542.19,95.08,-70.35 541.47,92.49,-70.35"/>
    </edge>
    <edge id=":F1_7" function="internal">
        <lane id=":F1_7_0" index="0" speed="13.89" length="14.97" shape="537.59,98.40,-70.35 552.56,98.40,-70.35"/>
    </edge>
    <edge id=":F1_8" function="internal">
        <lane id=":F1_8_0" index="0" speed="3.65" length="2.34" shape="537.59,98.40,-70.35 538.79,99.20,-70.35 539.19,100.00,-70.35"/>
    </edge>
    <edge id=":F1_11" function="internal">
        <lane id=":F1_11_0" index="0" speed="3.65" length="2.34" shape="539.19,100.00,-70.35 538.79,100.80,-70.35 537.59,101.60,-70.35"/>
    </edge>
    <edge id=":G0_0" function="internal">
        <lane id=":G0_0_0" index="0" speed="7.12" length="9.81" shape="579.67,7.85,41.29 578.94,5.11,41.29 577.64,3.16,41.29 575.79,1.99,41.29 573.38,1.60,41.29"/>
    </edge>
    <edge id=":G0_1" function="internal">
        <lane id=":G0_1_0" index="0" speed="7.77" length="14.77" shape="579.67,7.85,41.29 579.67,3.71,41.29 581.03,0.76,41.29 583.75,-1.01,41.29 587.85,-1.60,41.29"/>
    </edge>
    <edge id=":G0_2" function="internal">
        <lane id=":G0_2_0" index="0" speed="3.65" length="4.67" shape="579.67,7.85,41.29 580.29,6.55,41.29 581.02,6.03,41.29 581.87,6.32,41.29 582.84,7.39,41.29"/>
    </edge>
    <edge id=":G0_3" function="internal">
        <lane id=":G0_3_0" index="0" speed="6.22" length="9.05" shape="587.85,1.60,41.29 585.34,1.96,41.29 583.67,3.05,41.29 582.84,4.86,41.29 582.84,7.39,41.29"/>
    </edge>
    <edge id=":G0_4" function="internal">
        <lane id=":G0_4_0" index="0" speed="13.89" length="14.47" shape="587.85,1.60,41.29 573.38,1.60,41.29"/>
    </edge>
    <edge id=":G0_5" function="internal">
        <lane id=":G0_5_0" index="0" speed="3.65" length="2.34" shape="587.85,1.60,41.29 586.65,0.80,41.29 586.25,0.00,41.29"/>
    </edge>
    <edge id=":G0_9" function="internal">
        <lane id=":G0_9_0" index="0" speed="3.65" length="2.34" shape="586.25,0.00,41.29 586.65,-0.80,41.29 587.85,-1.60,41.29"/>
    </edge>
    <edge id=":G0_6" function="internal">
        <lane id=":G0_6_0" index="0" speed="13.89" length="14.47" shape="573.38,-1.60,41.29 587.85,-1.60,41.29"/>
    </edge>
    <edge id=":G0_7" function="internal">
        <lane id=":G0_7_0" index="0" speed="8.52" length="5.70" shape="573.38,-1.60,41.29 577.03,-1.04,41.29 578.75,0.00,41.29"/>
    </edge>
    <edge id=":G0_8" function="internal">
        <lane id=":G0_8_0" index="0" speed="3.65" length="2.34" shape="573.38,-1.60,41.29 574.58,-0.80,41.29 574.98,0.00,41.29"/>
    </edge>
    <edge id=":G0_10" function="internal">
        <lane id=":G0_10_0" index="0" speed="8.52" length="8.74" shape="578.75,0.00,41.29 579.82,0.65,41.29 581.76,3.46,41.29 582.84,7.39,41.29"/>
    </edge>
    <edge id=":G0_11" function="internal">
        <lane id=":G0_11_0" index="0" speed="3.65" length="2.34" shape="574.98,0.00,41.29 574.58,0.80,41.29 573.38,1.60,41.29"/>
    </edge>
    <edge id=":G1_0" function="internal">
        <lane id=":G1_0_0" index="0" speed="13.89" length="14.47" shape="601.43,101.60,-146.17 586.96,101.60,-146.17"/>
    </edge>
    <edge id=":G1_1" function="internal">
        <lane id=":G1_1_0" index="0" speed="8.52" length="5.70" shape="601.43,101.60,-146.17 597.78,101.04,-146.17 596.06,100.00,-146.17"/>
    </edge>
    <edge id=":G1_2" function="internal">
        <lane id=":G1_2_0" index="0" speed="3.65" length="2.34" shape="601.43,101.60,-146.17 600.23,100.80,-146.17 599.83,100.00,-146.17"/>
    </edge>
    <edge id=":G1_9" function="internal">
        <lane id=":G1_9_0" index="0" speed="8.52" length="8.74" shape="596.06,100.00,-146.17 594.99,99.35,-146.17 593.05,96.54,-146.17 591.97,92.61,-146.17"/>
    </edge>
    <edge id=":G1_10" function="internal">
        <lane id=":G1_10_0" index="0" speed="3.65" length="2.34" shape="599.83,100.00,-146.17 600.23,99.20,-146.17 601.43,98.40,-146.17"/>
    </edge>
    <edge id=":G1_3" function="internal">
        <lane id=":G1_3_0" index="0" speed="7.12" length="9.81" shape="595.14,92.15,-146.17 595.87,94.89,-146.17 597.16,96.84,-146.17 599.02,98.01,-146.17 601.43,98.40,-146.17"/>
    </edge>
    <edge id=":G1_4" function="internal">
        <lane id=":G1_4_0" index="0" speed="7.77" length="14.77" shape="595.14,92.15,-146.17 595.14,96.29,-146.17 593.78,99.24,-146.17 591.05,101.01,-146.17 586.96,101.60,-146.17"/>
    </edge>
    <edge id=":G1_5" function="internal">
        <lane id=":G1_5_0" index="0" speed="3.65" length="4.67" shape="595.14,92.15,-146.17 594.52,93.45,-146.17 593.78,93.97,-146.17 592.93,93.68,-146.17 591.97,92.61,-146.17"/>
    </edge>
    <edge id=":G1_6" function="internal">
        <lane id=":G1_6_0" index="0" speed="6.22" length="9.05" shape="586.96,98.40,-146.17 589.47,98.04,-146.17 591.14,96.95,-146.17 591.97,95.14,-146.17 591.97,92.61,-146.17"/>
    </edge>