<?xml version="1.0" encoding="UTF-8"?>

<!-- generated on 07/28/20 19:11:52 by Eclipse SUMO netgenerate Version 1.5.0
<configuration xmlns:xsi="http://www.w3.org/2001/XMLSchema-instance" xsi:noNamespaceSchemaLocation="http://sumo.dlr.de/xsd/netgenerateConfiguration.xsd">

    <grid_network>
        <grid value="true"/>
        <grid.x-number value="21"/>
        <grid.y-number value="2"/>
    </grid_network>

    <output>
        <output-file value="9.net.xml"/>
    </output>

    <processing>
        <perturb-z value="25"/>
    </processing>

    <building_defaults>
        <default.speed value="100"/>
    </building_defaults>

    <random_number>
        <seed value="5982279"/>
    </random_number>

</configuration>
-->

<net version="1.3" junctionCornerDetail="5" limitTurnSpeed="5.50" xmlns:xsi="http://www.w3.org/2001/XMLSchema-instance" xsi:noNamespaceSchemaLocation="http://sumo.dlr.de/xsd/net_file.xsd">

    <location netOffset="0.00,0.00" convBoundary="0.00,0.00,2000.00,100.00" origBoundary="0.00,0.00,2000.00,100.00" projParameter="!"/>

    <edge id=":A0_0" function="internal">
        <lane id=":A0_0_0" index="0" speed="6.08" length="7.75" shape="-1.60,3.20,22.17 -1.30,1.10,22.08 -0.40,-0.40,22.01 1.10,-1.30,21.93 3.20,-1.60,21.84"/>
    </edge>
    <edge id=":A0_1" function="internal">
        <lane id=":A0_1_0" index="0" speed="3.90" length="2.59" shape="3.20,1.60,21.91 2.50,1.70,21.98 2.00,2.00,22.04 1.70,2.50,22.10 1.60,3.20,22.17"/>
    </edge>
    <edge id=":A1_0" function="internal">
        <lane id=":A1_0_0" index="0" speed="6.08" length="7.76" shape="3.20,101.60,59.03 1.10,101.30,59.17 -0.40,100.40,59.29 -1.30,98.90,59.41 -1.60,96.80,59.55"/>
    </edge>
    <edge id=":A1_1" function="internal">
        <lane id=":A1_1_0" index="0" speed="3.90" length="2.61" shape="1.60,96.80,59.55 1.70,97.50,59.44 2.00,98.00,59.35 2.50,98.30,59.26 3.20,98.40,59.16"/>
    </edge>
    <edge id=":B0_0" function="internal">
        <lane id=":B0_0_0" index="0" speed="6.51" length="9.03" shape="98.40,7.20,50.34 98.05,4.75,50.34 97.00,3.00,50.34 95.25,1.95,50.34 92.80,1.60,50.34"/>
    </edge>
    <edge id=":B0_1" function="internal">
        <lane id=":B0_1_0" index="0" speed="8.00" length="14.19" shape="98.40,7.20,50.34 98.95,3.35,50.34 100.60,0.60,50.34 103.35,-1.05,50.34 107.20,-1.60,50.34"/>
    </edge>
    <edge id=":B0_2" function="internal">
        <lane id=":B0_2_0" index="0" speed="3.65" length="4.67" shape="98.40,7.20,50.34 99.20,6.00,50.34 100.00,5.60,50.34 100.80,6.00,50.34 101.60,7.20,50.34"/>
    </edge>
    <edge id=":B0_3" function="internal">
        <lane id=":B0_3_0" index="0" speed="6.51" length="9.03" shape="107.20,1.60,50.34 104.75,1.95,50.34 103.00,3.00,50.34 101.95,4.75,50.34 101.60,7.20,50.34"/>
    </edge>
    <edge id=":B0_4" function="internal">
        <lane id=":B0_4_0" index="0" speed="100.00" length="14.40" shape="107.20,1.60,50.34 92.80,1.60,50.34"/>
    </edge>
    <edge id=":B0_5" function="internal">
        <lane id=":B0_5_0" index="0" speed="3.65" length="2.34" shape="107.20,1.60,50.34 106.00,0.80,50.34 105.60,0.00,50.34"/>
    </edge>
    <edge id=":B0_9" function="internal">
        <lane id=":B0_9_0" index="0" speed="3.65" length="2.34" shape="105.60,0.00,50.34 106.00,-0.80,50.34 107.20,-1.60,50.34"/>
    </edge>
    <edge id=":B0_6" function="internal">
        <lane id=":B0_6_0" index="0" speed="100.00" length="14.40" shape="92.80,-1.60,50.34 107.20,-1.60,50.34"/>
    </edge>
    <edge id=":B0_7" function="internal">
        <lane id=":B0_7_0" index="0" speed="8.00" length="5.93" shape="92.80,-1.60,50.34 96.65,-1.05,50.34 98.40,0.00,50.34"/>
    </edge>
    <edge id=":B0_8" function="internal">
        <lane id=":B0_8_0" index="0" speed="3.65" length="2.34" shape="92.80,-1.60,50.34 94.00,-0.80,50.34 94.40,0.00,50.34"/>
    </edge>
    <edge id=":B0_10" function="internal">
        <lane id=":B0_10_0" index="0" speed="8.00" length="8.26" shape="98.40,0.00,50.34 99.40,0.60,50.34 101.05,3.35,50.34 101.60,7.20,50.34"/>
    </edge>
    <edge id=":B0_11" function="internal">
        <lane id=":B0_11_0" index="0" speed="3.65" length="2.34" shape="94.40,0.00,50.34 94.00,0.80,50.34 92.80,1.60,50.34"/>
    </edge>
    <edge id=":B1_0" function="internal">
        <lane id=":B1_0_0" index="0" speed="100.00" length="14.40" shape="107.20,101.60,8.56 92.80,101.60,8.56"/>
    </edge>
    <edge id=":B1_1" function="internal">
        <lane id=":B1_1_0" index="0" speed="8.00" length="5.93" shape="107.20,101.60,8.56 103.35,101.05,8.56 101.60,100.00,8.56"/>
    </edge>
    <edge id=":B1_2" function="internal">
        <lane id=":B1_2_0" index="0" speed="3.65" length="2.34" shape="107.20,101.60,8.56 106.00,100.80,8.56 105.60,100.00,8.56"/>
    </edge>
    <edge id=":B1_9" function="internal">
        <lane id=":B1_9_0" index="0" speed="8.00" length="8.26" shape="101.60,100.00,8.56 100.60,99.40,8.56 98.95,96.65,8.56 98.40,92.80,8.56"/>
    </edge>
    <edge id=":B1_10" function="internal">
        <lane id=":B1_10_0" index="0" speed="3.65" length="2.34" shape="105.60,100.00,8.56 106.00,99.20,8.56 107.20,98.40,8.56"/>
    </edge>
    <edge id=":B1_3" function="internal">
        <lane id=":B1_3_0" index="0" speed="6.51" length="9.03" shape="101.60,92.80,8.56 101.95,95.25,8.56 103.00,97.00,8.56 104.75,98.05,8.56 107.20,98.40,8.56"/>
    </edge>
    <edge id=":B1_4" function="internal">
        <lane id=":B1_4_0" index="0" speed="8.00" length="14.19" shape="101.60,92.80,8.56 101.05,96.65,8.56 99.40,99.40,8.56 96.65,101.05,8.56 92.80,101.60,8.56"/>
    </edge>
    <edge id=":B1_5" function="internal">
        <lane id=":B1_5_0" index="0" speed="3.65" length="4.67" shape="101.60,92.80,8.56 100.80,94.00,8.56 100.00,94.40,8.56 99.20,94.00,8.56 98.40,92.80,8.56"/>
    </edge>
    <edge id=":B1_6" function="internal">
        <lane id=":B1_6_0" index="0" speed="6.51" length="9.03" shape="92.80,98.40,8.56 95.25,98.05,8.56 97.00,97.00,8.56 98.05,95.25,8.56 98.40,92.80,8.56"/>
    </edge>
    <edge id=":B1_7" function="internal">
        <lane id=":B1_7_0" index="0" speed="100.00" length="14.40" shape="92.80,98.40,8.56 107.20,98.40,8.56"/>
    </edge>
    <edge id=":B1_8" function="internal">
        <lane id=":B1_8_0" index="0" speed="3.65" length="2.34" shape="92.80,98.40,8.56 94.00,99.20,8.56 94.40,100.00,8.56"/>
    </edge>
    <edge id=":B1_11" function="internal">
        <lane id=":B1_11_0" index="0" speed="3.65" length="2.34" shape="94.40,100.00,8.56 94.00,100.80,8.56 92.80,101.60,8.56"/>
    </edge>
    <edge id=":C0_0" function="internal">
        <lane id=":C0_0_0" index="0" speed="6.51" length="9.03" shape="198.40,7.20,-9.44 198.05,4.75,-9.44 197.00,3.00,-9.44 195.25,1.95,-9.44 192.80,1.60,-9.44"/>
    </edge>
    <edge id=":C0_1" function="internal">
        <lane id=":C0_1_0" index="0" speed="8.00" length="14.19" shape="198.40,7.20,-9.44 198.95,3.35,-9.44 200.60,0.60,-9.44 203.35,-1.05,-9.44 207.20,-1.60,-9.44"/>
    </edge>
    <edge id=":C0_2" function="internal">
        <lane id=":C0_2_0" index="0" speed="3.65" length="4.67" shape="198.40,7.20,-9.44 199.20,6.00,-9.44 200.00,5.60,-9.44 200.80,6.00,-9.44 201.60,7.20,-9.44"/>
    </edge>
    <edge id=":C0_3" function="internal">
        <lane id=":C0_3_0" index="0" speed="6.51" length="9.03" shape="207.20,1.60,-9.44 204.75,1.95,-9.44 203.00,3.00,-9.44 201.95,4.75,-9.44 201.60,7.20,-9.44"/>
    </edge>
    <edge id=":C0_4" function="internal">
        <lane id=":C0_4_0" index="0" speed="100.00" length="14.40" shape="207.20,1.60,-9.44 192.80,1.60,-9.44"/>
    </edge>
    <edge id=":C0_5" function="internal">
        <lane id=":C0_5_0" index="0" speed="3.65" length="2.34" shape="207.20,1.60,-9.44 206.00,0.80,-9.44 205.60,0.00,-9.44"/>
    </edge>
    <edge id=":C0_9" function="internal">
        <lane id=":C0_9_0" index="0" speed="3.65" length="2.34" shape="205.60,0.00,-9.44 206.00,-0.80,-9.44 207.20,-1.60,-9.44"/>
    </edge>
    <edge id=":C0_6" function="internal">
        <lane id=":C0_6_0" index="0" speed="100.00" length="14.40" shape="192.80,-1.60,-9.44 207.20,-1.60,-9.44"/>
    </edge>
    <edge id=":C0_7" function="internal">
        <lane id=":C0_7_0" index="0" speed="8.00" length="5.93" shape="192.80,-1.60,-9.44 196.65,-1.05,-9.44 198.40,0.00,-9.44"/>
    </edge>
    <edge id=":C0_8" function="internal">
        <lane id=":C0_8_0" index="0" speed="3.65" length="2.34" shape="192.80,-1.60,-9.44 194.00,-0.80,-9.44 194.40,0.00,-9.44"/>
    </edge>
    <edge id=":C0_10" function="internal">
        <lane id=":C0_10_0" index="0" speed="8.00" length="8.26" shape="198.40,0.00,-9.44 199.40,0.60,-9.44 201.05,3.35,-9.44 201.60,7.20,-9.44"/>
    </edge>
    <edge id=":C0_11" function="internal">
        <lane id=":C0_11_0" index="0" speed="3.65" length="2.34" shape="194.40,0.00,-9.44 194.00,0.80,-9.44 192.80,1.60,-9.44"/>
    </edge>
    <edge id=":C1_0" function="internal">
        <lane id=":C1_0_0" index="0" speed="100.00" length="14.40" shape="207.20,101.60,21.75 192.80,101.60,21.75"/>
    </edge>
    <edge id=":C1_1" function="internal">
        <lane id=":C1_1_0" index="0" speed="8.00" length="5.93" shape="207.20,101.60,21.75 203.35,101.05,21.75 201.60,100.00,21.75"/>
    </edge>
    <edge id=":C1_2" function="internal">
        <lane id=":C1_2_0" index="0" speed="3.65" length="2.34" shape="207.20,101.60,21.75 206.00,100.80,21.75 205.60,100.00,21.75"/>
    </edge>
    <edge id=":C1_9" function="internal">
        <lane id=":C1_9_0" index="0" speed="8.00" length="8.26" shape="201.60,100.00,21.75 200.60,99.40,21.75 198.95,96.65,21.75 198.40,92.80,21.75"/>
    </edge>
    <edge id=":C1_10" function="internal">
        <lane id=":C1_10_0" index="0" speed="3.65" length="2.34" shape="205.60,100.00,21.75 206.00,99.20,21.75 207.20,98.40,21.75"/>
    </edge>
    <edge id=":C1_3" function="internal">
        <lane id=":C1_3_0" index="0" speed="6.51" length="9.03" shape="201.60,92.80,21.75 201.95,95.25,21.75 203.00,97.00,21.75 204.75,98.05,21.75 207.20,98.40,21.75"/>
    </edge>
    <edge id=":C1_4" function="internal">
        <lane id=":C1_4_0" index="0" speed="8.00" length="14.19" shape="201.60,92.80,21.75 201.05,96.65,21.75 199.40,99.40,21.75 196.65,101.05,21.75 192.80,101.60,21.75"/>
    </edge>
    <edge id=":C1_5" function="internal">
        <lane id=":C1_5_0" index="0" speed="3.65" length="4.67" shape="201.60,92.80,21.75 200.80,94.00,21.75 200.00,94.40,21.75 199.20,94.00,21.75 198.40,92.80,21.75"/>
    </edge>
    <edge id=":C1_6" function="internal">
        <lane id=":C1_6_0" index="0" speed="6.51" length="9.03" shape="192.80,98.40,21.75 195.25,98.05,21.75 197.00,97.00,21.75 198.05,95.25,21.75 198.40,92.80,21.75"/>
    </edge>
    <edge id=":C1_7" function="internal">
        <lane id=":C1_7_0" index="0" speed="100.00" length="14.40" shape="192.80,98.40,21.75 207.20,98.40,21.75"/>
    </edge>
    <edge id=":C1_8" function="internal">
        <lane id=":C1_8_0" index="0" speed="3.65" length="2.34" shape="192.80,98.40,21.75 194.00,99.20,21.75 194.40,100.00,21.75"/>
    </edge>
    <edge id=":C1_11" function="internal">
        <lane id=":C1_11_0" index="0" speed="3.65" length="2.34" shape="194.40,100.00,21.75 194.00,100.80,21.75 192.80,101.60,21.75"/>
    </edge>
    <edge id=":D0_0" function="internal">
        <lane id=":D0_0_0" index="0" speed="6.51" length="9.03" shape="298.40,7.20,27.96 298.05,4.75,27.96 297.00,3.00,27.96 295.25,1.95,27.96 292.80,1.60,27.96"/>
    </edge>
    <edge id=":D0_1" function="internal">
        <lane id=":D0_1_0" index="0" speed="8.00" length="14.19" shape="298.40,7.20,27.96 298.95,3.35,27.96 300.60,0.60,27.96 303.35,-1.05,27.96 307.20,-1.60,27.96"/>
    </edge>
    <edge id=":D0_2" function="internal">
        <lane id=":D0_2_0" index="0" speed="3.65" length="4.67" shape="298.40,7.20,27.96 299.20,6.00,27.96 300.00,5.60,27.96 300.80,6.00,27.96 301.60,7.20,27.96"/>
    </edge>
    <edge id=":D0_3" function="internal">
        <lane id=":D0_3_0" index="0" speed="6.51" length="9.03" shape="307.20,1.60,27.96 304.75,1.95,27.96 303.00,3.00,27.96 301.95,4.75,27.96 301.60,7.20,27.96"/>
    </edge>
    <edge id=":D0_4" function="internal">
        <lane id=":D0_4_0" index="0" speed="100.00" length="14.40" shape="307.20,1.60,27.96 292.80,1.60,27.96"/>
    </edge>
    <edge id=":D0_5" function="internal">
        <lane id=":D0_5_0" index="0" speed="3.65" length="2.34" shape="307.20,1.60,27.96 306.00,0.80,27.96 305.60,0.00,27.96"/>
    </edge>
    <edge id=":D0_9" function="internal">
        <lane id=":D0_9_0" index="0" speed="3.65" length="2.34" shape="305.60,0.00,27.96 306.00,-0.80,27.96 307.20,-1.60,27.96"/>
    </edge>
    <edge id=":D0_6" function="internal">
        <lane id=":D0_6_0" index="0" speed="100.00" length="14.40" shape="292.80,-1.60,27.96 307.20,-1.60,27.96"/>
    </edge>
    <edge id=":D0_7" function="internal">
        <lane id=":D0_7_0" index="0" speed="8.00" length="5.93" shape="292.80,-1.60,27.96 296.65,-1.05,27.96 298.40,-0.00,27.96"/>
    </edge>
    <edge id=":D0_8" function="internal">
        <lane id=":D0_8_0" index="0" speed="3.65" length="2.34" shape="292.80,-1.60,27.96 294.00,-0.80,27.96 294.40,0.00,27.96"/>
    </edge>
    <edge id=":D0_10" function="internal">
        <lane id=":D0_10_0" index="0" speed="8.00" length="8.26" shape="298.40,-0.00,27.96 299.40,0.60,27.96 301.05,3.35,27.96 301.60,7.20,27.96"/>
    </edge>
    <edge id=":D0_11" function="internal">
        <lane id=":D0_11_0" index="0" speed="3.65" length="2.34" shape="294.40,0.00,27.96 294.00,0.80,27.96 292.80,1.60,27.96"/>
    </edge>
    <edge id=":D1_0" function="internal">
        <lane id=":D1_0_0" index="0" speed="100.00" length="14.40" shape="307.20,101.60,10.21 292.80,101.60,10.21"/>
    </edge>
    <edge id=":D1_1" function="internal">
        <lane id=":D1_1_0" index="0" speed="8.00" length="5.93" shape="307.20,101.60,10.21 303.35,101.05,10.21 301.60,100.00,10.21"/>
    </edge>
    <edge id=":D1_2" function="internal">
        <lane id=":D1_2_0" index="0" speed="3.65" length="2.34" shape="307.20,101.60,10.21 306.00,100.80,10.21 305.60,100.00,10.21"/>
    </edge>
    <edge id=":D1_9" function="internal">
        <lane id=":D1_9_0" index="0" speed="8.00" length="8.26" shape="301.60,100.00,10.21 300.60,99.40,10.21 298.95,96.65,10.21 298.40,92.80,10.21"/>
    </edge>
    <edge id=":D1_10" function="internal">
        <lane id=":D1_10_0" index="0" speed="3.65" length="2.34" shape="305.60,100.00,10.21 306.00,99.20,10.21 307.20,98.40,10.21"/>
    </edge>
    <edge id=":D1_3" function="internal">
        <lane id=":D1_3_0" index="0" speed="6.51" length="9.03" shape="301.60,92.80,10.21 301.95,95.25,10.21 303.00,97.00,10.21 304.75,98.05,10.21 307.20,98.40,10.21"/>
    </edge>
    <edge id=":D1_4" function="internal">
        <lane id=":D1_4_0" index="0" speed="8.00" length="14.19" shape="301.60,92.80,10.21 301.05,96.65,10.21 299.40,99.40,10.21 296.65,101.05,10.21 292.80,101.60,10.21"/>
    </edge>
    <edge id=":D1_5" function="internal">
        <lane id=":D1_5_0" index="0" speed="3.65" length="4.67" shape="301.60,92.80,10.21 300.80,94.00,10.21 300.00,94.40,10.21 299.20,94.00,10.21 298.40,92.80,10.21"/>
    </edge>
    <edge id=":D1_6" function="internal">
        <lane id=":D1_6_0" index="0" speed="6.51" length="9.03" shape="292.80,98.40,10.21 295.25,98.05,10.21 297.00,97.00,10.21 298.05,95.25,10.21 298.40,92.80,10.21"/>
    </edge>
    <edge id=":D1_7" function="internal">
        <lane id=":D1_7_0" index="0" speed="100.00" length="14.40" shape="292.80,98.40,10.21 307.20,98.40,10.21"/>
    </edge>
    <edge id=":D1_8" function="internal">
        <lane id=":D1_8_0" index="0" speed="3.65" length="2.34" shape="292.80,98.40,10.21 294.00,99.20,10.21 294.40,100.00,10.21"/>
    </edge>
    <edge id=":D1_11" function="internal">
        <lane id=":D1_11_0" index="0" speed="3.65" length="2.34" shape="294.40,100.00,10.21 294.00,100.80,10.21 292.80,101.60,10.21"/>
    </edge>
    <edge id=":E0_0" function="internal">
        <lane id=":E0_0_0" index="0" speed="6.51" length="9.03" shape="398.40,7.20,3.04 398.05,4.75,3.04 397.00,3.00,3.04 395.25,1.95,3.04 392.80,1.60,3.04"/>
    </edge>
    <edge id=":E0_1" function="internal">
        <lane id=":E0_1_0" index="0" speed="8.00" length="14.19" shape="398.40,7.20,3.04 398.95,3.35,3.04 400.60,0.60,3.04 403.35,-1.05,3.04 407.20,-1.60,3.04"/>
    </edge>
    <edge id=":E0_2" function="internal">
        <lane id=":E0_2_0" index="0" speed="3.65" length="4.67" shape="398.40,7.20,3.04 399.20,6.00,3.04 400.00,5.60,3.04 400.80,6.00,3.04 401.60,7.20,3.04"/>
    </edge>
    <edge id=":E0_3" function="internal">
        <lane id=":E0_3_0" index="0" speed="6.51" length="9.03" shape="407.20,1.60,3.04 404.75,1.95,3.04 403.00,3.00,3.04 401.95,4.75,3.04 401.60,7.20,3.04"/>
    </edge>
    <edge id=":E0_4" function="internal">
        <lane id=":E0_4_0" index="0" speed="100.00" length="14.40" shape="407.20,1.60,3.04 392.80,1.60,3.04"/>
    </edge>
    <edge id=":E0_5" function="internal">
        <lane id=":E0_5_0" index="0" speed="3.65" length="2.34" shape="407.20,1.60,3.04 406.00,0.80,3.04 405.60,0.00,3.04"/>
    </edge>
    <edge id=":E0_9" function="internal">
        <lane id=":E0_9_0" index="0" speed="3.65" length="2.34" shape="405.60,0.00,3.04 406.00,-0.80,3.04 407.20,-1.60,3.04"/>
    </edge>
    <edge id=":E0_6" function="internal">
        <lane id=":E0_6_0" index="0" speed="100.00" length="14.40" shape="392.80,-1.60,3.04 407.20,-1.60,3.04"/>
    </edge>
    <edge id=":E0_7" function="internal">
        <lane id=":E0_7_0" index="0" speed="8.00" length="5.93" shape="392.80,-1.60,3.04 396.65,-1.05,3.04 398.40,-0.00,3.04"/>
    </edge>
    <edge id=":E0_8" function="internal">
        <lane id=":E0_8_0" index="0" speed="3.65" length="2.34" shape="392.80,-1.60,3.04 394.00,-0.80,3.04 394.40,0.00,3.04"/>
    </edge>
    <edge id=":E0_10" function="internal">
        <lane id=":E0_10_0" index="0" speed="8.00" length="8.26" shape="398.40,-0.00,3.04 399.40,0.60,3.04 401.05,3.35,3.04 401.60,7.20,3.04"/>
    </edge>
    <edge id=":E0_11" function="internal">
        <lane id=":E0_11_0" index="0" speed="3.65" length="2.34" shape="394.40,0.00,3.04 394.00,0.80,3.04 392.80,1.60,3.04"/>
    </edge>
    <edge id=":E1_0" function="internal">
        <lane id=":E1_0_0" index="0" speed="100.00" length="14.40" shape="407.20,101.60,-10.31 392.80,101.60,-10.31"/>
    </edge>
    <edge id=":E1_1" function="internal">
        <lane id=":E1_1_0" index="0" speed="8.00" length="5.93" shape="407.20,101.60,-10.31 403.35,101.05,-10.31 401.60,100.00,-10.31"/>
    </edge>
    <edge id=":E1_2" function="internal">
        <lane id=":E1_2_0" index="0" speed="3.65" length="2.34" shape="407.20,101.60,-10.31 406.00,100.80,-10.31 405.60,100.00,-10.31"/>
    </edge>
    <edge id=":E1_9" function="internal">
        <lane id=":E1_9_0" index="0" speed="8.00" length="8.26" shape="401.60,100.00,-10.31 400.60,99.40,-10.31 398.95,96.65,-10.31 398.40,92.80,-10.31"/>
    </edge>
    <edge id=":E1_10" function="internal">
        <lane id=":E1_10_0" index="0" speed="3.65" length="2.34" shape="405.60,100.00,-10.31 406.00,99.20,-10.31 407.20,98.40,-10.31"/>
    </edge>
    <edge id=":E1_3" function="internal">
        <lane id=":E1_3_0" index="0" speed="6.51" length="9.03" shape="401.60,92.80,-10.31 401.95,95.25,-10.31 403.00,97.00,-10.31 404.75,98.05,-10.31 407.20,98.40,-10.31"/>
    </edge>
    <edge id=":E1_4" function="internal">
        <lane id=":E1_4_0" index="0" speed="8.00" length="14.19" shape="401.60,92.80,-10.31 401.05,96.65,-10.31 399.40,99.40,-10.31 396.65,101.05,-10.31 392.80,101.60,-10.31"/>
    </edge>
    <edge id=":E1_5" function="internal">
        <lane id=":E1_5_0" index="0" speed="3.65" length="4.67" shape="401.60,92.80,-10.31 400.80,94.00,-10.31 400.00,94.40,-10.31 399.20,94.00,-10.31 398.40,92.80,-10.31"/>
    </edge>
    <edge id=":E1_6" function="internal">
        <lane id=":E1_6_0" index="0" speed="6.51" length="9.03" shape="392.80,98.40,-10.31 395.25,98.05,-10.31 397.00,97.00,-10.31 398.05,95.25,-10.31 398.40,92.80,-10.31"/>
    </edge>
    <edge id=":E1_7" function="internal">
        <lane id=":E1_7_0" index="0" speed="100.00" length="14.40" shape="392.80,98.40,-10.31 407.20,98.40,-10.31"/>
    </edge>
    <edge id=":E1_8" function="internal">
        <lane id=":E1_8_0" index="0" speed="3.65" length="2.34" shape="392.80,98.40,-10.31 394.00,99.20,-10.31 394.40,100.00,-10.31"/>
    </edge>
    <edge id=":E1_11" function="internal">
        <lane id=":E1_11_0" index="0" speed="3.65" length="2.34" shape="394.40,100.00,-10.31 394.00,100.80,-10.31 392.80,101.60,-10.31"/>
    </edge>
    <edge id=":F0_0" function="internal">
        <lane id=":F0_0_0" index="0" speed="6.51" length="9.03" shape="498.40,7.20,25.79 498.05,4.75,25.79 497.00,3.00,25.79 495.25,1.95,25.79 492.80,1.60,25.79"/>
    </edge>
    <edge id=":F0_1" function="internal">
        <lane id=":F0_1_0" index="0" speed="8.00" length="14.19" shape="498.40,7.20,25.79 498.95,3.35,25.79 500.60,0.60,25.79 503.35,-1.05,25.79 507.20,-1.60,25.79"/>
    </edge>
    <edge id=":F0_2" function="internal">
        <lane id=":F0_2_0" index="0" speed="3.65" length="4.67" shape="498.40,7.20,25.79 499.20,6.00,25.79 500.00,5.60,25.79 500.80,6.00,25.79 501.60,7.20,25.79"/>
    </edge>
    <edge id=":F0_3" function="internal">
        <lane id=":F0_3_0" index="0" speed="6.51" length="9.03" shape="507.20,1.60,25.79 504.75,1.95,25.79 503.00,3.00,25.79 501.95,4.75,25.79 501.60,7.20,25.79"/>
    </edge>
    <edge id=":F0_4" function="internal">
        <lane id=":F0_4_0" index="0" speed="100.00" length="14.40" shape="507.20,1.60,25.79 492.80,1.60,25.79"/>
    </edge>
    <edge id=":F0_5" function="internal">
        <lane id=":F0_5_0" index="0" speed="3.65" length="2.34" shape="507.20,1.60,25.79 506.00,0.80,25.79 505.60,0.00,25.79"/>
    </edge>
    <edge id=":F0_9" function="internal">
        <lane id=":F0_9_0" index="0" speed="3.65" length="2.34" shape="505.60,0.00,25.79 506.00,-0.80,25.79 507.20,-1.60,25.79"/>
    </edge>
    <edge id=":F0_6" function="internal">
        <lane id=":F0_6_0" index="0" speed="100.00" length="14.40" shape="492.80,-1.60,25.79 507.20,-1.60,25.79"/>
    </edge>
    <edge id=":F0_7" function="internal">
        <lane id=":F0_7_0" index="0" speed="8.00" length="5.93" shape="492.80,-1.60,25.79 496.65,-1.05,25.79 498.40,-0.00,25.79"/>
    </edge>
    <edge id=":F0_8" function="internal">
        <lane id=":F0_8_0" index="0" speed="3.65" length="2.34" shape="492.80,-1.60,25.79 494.00,-0.80,25.79 494.40,0.00,25.79"/>
    </edge>
    <edge id=":F0_10" function="internal">
        <lane id=":F0_10_0" index="0" speed="8.00" length="8.26" shape="498.40,-0.00,25.79 499.40,0.60,25.79 501.05,3.35,25.79 501.60,7.20,25.79"/>
    </edge>
    <edge id=":F0_11" function="internal">
        <lane id=":F0_11_0" index="0" speed="3.65" length="2.34" shape="494.40,0.00,25.79 494.00,0.80,25.79 492.80,1.60,25.79"/>
    </edge>
    <edge id=":F1_0" function="internal">
        <lane id=":F1_0_0" index="0" speed="100.00" length="14.40" shape="507.20,101.60,-6.88 492.80,101.60,-6.88"/>
    </edge>
    <edge id=":F1_1" function="internal">
        <lane id=":F1_1_0" index="0" speed="8.00" length="5.93" shape="507.20,101.60,-6.88 503.35,101.05,-6.88 501.60,100.00,-6.88"/>
    </edge>
    <edge id=":F1_2" function="internal">
        <lane id=":F1_2_0" index="0" speed="3.65" length="2.34" shape="507.20,101.60,-6.88 506.00,100.80,-6.88 505.60,100.00,-6.88"/>
    </edge>
    <edge id=":F1_9" function="internal">
        <lane id=":F1_9_0" index="0" speed="8.00" length="8.26" shape="501.60,100.00,-6.88 500.60,99.40,-6.88 498.95,96.65,-6.88 498.40,92.80,-6.88"/>
    </edge>
    <edge id=":F1_10" function="internal">
        <lane id=":F1_10_0" index="0" speed="3.65" length="2.34" shape="505.60,100.00,-6.88 506.00,99.20,-6.88 507.20,98.40,-6.88"/>
    </edge>
    <edge id=":F1_3" function="internal">
        <lane id=":F1_3_0" index="0" speed="6.51" length="9.03" shape="501.60,92.80,-6.88 501.95,95.25,-6.88 503.00,97.00,-6.88 504.75,98.05,-6.88 507.20,98.40,-6.88"/>
    </edge>
    <edge id=":F1_4" function="internal">
        <lane id=":F1_4_0" index="0" speed="8.00" length="14.19" shape="501.60,92.80,-6.88 501.05,96.65,-6.88 499.40,99.40,-6.88 496.65,101.05,-6.88 492.80,101.60,-6.88"/>
    </edge>
    <edge id=":F1_5" function="internal">
        <lane id=":F1_5_0" index="0" speed="3.65" length="4.67" shape="501.60,92.80,-6.88 500.80,94.00,-6.88 500.00,94.40,-6.88 499.20,94.00,-6.88 498.40,92.80,-6.88"/>
    </edge>
    <edge id=":F1_6" function="internal">
        <lane id=":F1_6_0" index="0" speed="6.51" length="9.03" shape="492.80,98.40,-6.88 495.25,98.05,-6.88 497.00,97.00,-6.88 498.05,95.25,-6.88 498.40,92.80,-6.88"/>
    </edge>
    <edge id=":F1_7" function="internal">
        <lane id=":F1_7_0" index="0" speed="100.00" length="14.40" shape="492.80,98.40,-6.88 507.20,98.40,-6.88"/>
    </edge>
    <edge id=":F1_8" function="internal">
        <lane id=":F1_8_0" index="0" speed="3.65" length="2.34" shape="492.80,98.40,-6.88 494.00,99.20,-6.88 494.40,100.00,-6.88"/>
    </edge>
    <edge id=":F1_11" function="internal">
        <lane id=":F1_11_0" index="0" speed="3.65" length="2.34" shape="494.40,100.00,-6.88 494.00,100.80,-6.88 492.80,101.60,-6.88"/>
    </edge>
    <edge id=":G0_0" function="internal">
        <lane id=":G0_0_0" index="0" speed="6.51" length="9.03" shape="598.40,7.20,34.91 598.05,4.75,34.91 597.00,3.00,34.91 595.25,1.95,34.91 592.80,1.60,34.91"/>
    </edge>
    <edge id=":G0_1" function="internal">
        <lane id=":G0_1_0" index="0" speed="8.00" length="14.19" shape="598.40,7.20,34.91 598.95,3.35,34.91 600.60,0.60,34.91 603.35,-1.05,34.91 607.20,-1.60,34.91"/>
    </edge>
    <edge id=":G0_2" function="internal">
        <lane id=":G0_2_0" index="0" speed="3.65" length="4.67" shape="598.40,7.20,34.91 599.20,6.00,34.91 600.00,5.60,34.91 600.80,6.00,34.91 601.60,7.20,34.91"/>
    </edge>
    <edge id=":G0_3" function="internal">
        <lane id=":G0_3_0" index="0" speed="6.51" length="9.03" shape="607.20,1.60,34.91 604.75,1.95,34.91 603.00,3.00,34.91 601.95,4.75,34.91 601.60,7.20,34.91"/>
    </edge>
    <edge id=":G0_4" function="internal">
        <lane id=":G0_4_0" index="0" speed="100.00" length="14.40" shape="607.20,1.60,34.91 592.80,1.60,34.91"/>
    </edge>
    <edge id=":G0_5" function="internal">
        <lane id=":G0_5_0" index="0" speed="3.65" length="2.34" shape="607.20,1.60,34.91 606.00,0.80,34.91 605.60,0.00,34.91"/>
    </edge>
    <edge id=":G0_9" function="internal">
        <lane id=":G0_9_0" index="0" speed="3.65" length="2.34" shape="605.60,0.00,34.91 606.00,-0.80,34.91 607.20,-1.60,34.91"/>
    </edge>
    <edge id=":G0_6" function="internal">
        <lane id=":G0_6_0" index="0" speed="100.00" length="14.40" shape="592.80,-1.60,34.91 607.20,-1.60,34.91"/>
    </edge>
    <edge id=":G0_7" function="internal">
        <lane id=":G0_7_0" index="0" speed="8.00" length="5.93" shape="592.80,-1.60,34.91 596.65,-1.05,34.91 598.40,0.00,34.91"/>
    </edge>
    <edge id=":G0_8" function="internal">
        <lane id=":G0_8_0" index="0" speed="3.65" length="2.34" shape="592.80,-1.60,34.91 594.00,-0.80,34.91 594.40,0.00,34.91"/>
    </edge>
    <edge id=":G0_10" function="internal">
        <lane id=":G0_10_0" index="0" speed="8.00" length="8.26" shape="598.40,0.00,34.91 599.40,0.60,34.91 601.05,3.35,34.91 601.60,7.20,34.91"/>
    </edge>
    <edge id=":G0_11" function="internal">
        <lane id=":G0_11_0" index="0" speed="3.65" length="2.34" shape="594.40,0.00,34.91 594.00,0.80,34.91 592.80,1.60,34.91"/>
    </edge>
    <edge id=":G1_0" function="internal">
        <lane id=":G1_0_0" index="0" speed="100.00" length="14.40" shape="607.20,101.60,11.22 592.80,101.60,11.22"/>
    </edge>
    <edge id=":G1_1" function="internal">
        <lane id=":G1_1_0" index="0" speed="8.00" length="5.93" shape="607.20,101.60,11.22 603.35,101.05,11.22 601.60,100.00,11.22"/>
    </edge>
    <edge id=":G1_2" function="internal">
        <lane id=":G1_2_0" index="0" speed="3.65" length="2.34" shape="607.20,101.60,11.22 606.00,100.80,11.22 605.60,100.00,11.22"/>
    </edge>
    <edge id=":G1_9" function="internal">
        <lane id=":G1_9_0" index="0" speed="8.00" length="8.26" shape="601.60,100.00,11.22 600.60,99.40,11.22 598.95,96.65,11.22 598.40,92.80,11.22"/>
    </edge>
    <edge id=":G1_10" function="internal">
        <lane id=":G1_10_0" index="0" speed="3.65" length="2.34" shape="605.60,100.00,11.22 606.00,99.20,11.22 607.20,98.40,11.22"/>
    </edge>
    <edge id=":G1_3" function="internal">
        <lane id=":G1_3_0" index="0" speed="6.51" length="9.03" shape="601.60,92.80,11.22 601.95,95.25,11.22 603.00,97.00,11.22 604.75,98.05,11.22 607.20,98.40,11.22"/>
    </edge>
    <edge id=":G1_4" function="internal">
        <lane id=":G1_4_0" index="0" speed="8.00" length="14.19" shape="601.60,92.80,11.22 601.05,96.65,11.22 599.40,99.40,11.22 596.65,101.05,11.22 592.80,101.60,11.22"/>
    </edge>
    <edge id=":G1_5" function="internal">
        <lane id=":G1_5_0" index="0" speed="3.65" length="4.67" shape="601.60,92.80,11.22 600.80,94.00,11.22 600.00,94.40,11.22 599.20,94.00,11.22 598.40,92.80,11.22"/>
    </edge>
    <edge id=":G1_6" function="internal">
        <lane id=":G1_6_0" index="0" speed="6.51" length="9.03" shape="592.80,98.40,11.22 595.25,98.05,11.22 597.00,97.00,11.22 598.05,95.25,11.22 598.40,92.80,11.22"/>
    </edge>
    <edge id=":G1_7" function="internal">
        <lane id=":G1_7_0" index="0" speed="100.00" length="14.40" shape="592.80,98.40,11.22 607.20,98.40,11.22"/>
    </edge>
    <edge id=":G1_8" function="internal">
        <lane id=":G1_8_0" index="0" speed="3.65" length="2.34" shape="592.80,98.40,11.22 594.00,99.20,11.22 594.40,100.00,11.22"/>
    </edge>
    <edge id=":G1_11" function="internal">