<?xml version="1.0" encoding="UTF-8"?>

<!-- generated on 07/22/20 22:23:42 by Eclipse SUMO netgenerate Version 1.5.0
<configuration xmlns:xsi="http://www.w3.org/2001/XMLSchema-instance" xsi:noNamespaceSchemaLocation="http://sumo.dlr.de/xsd/netgenerateConfiguration.xsd">

    <grid_network>
        <grid value="true"/>
        <grid.x-number value="20"/>
        <grid.y-number value="2"/>
    </grid_network>

    <output>
        <output-file value="9.net.xml"/>
    </output>

    <processing>
        <perturb-x value="23"/>
        <perturb-z value="100"/>
    </processing>

    <random_number>
        <seed value="5982279"/>
    </random_number>

</configuration>
-->

<net version="1.3" junctionCornerDetail="5" limitTurnSpeed="5.50" xmlns:xsi="http://www.w3.org/2001/XMLSchema-instance" xsi:noNamespaceSchemaLocation="http://sumo.dlr.de/xsd/net_file.xsd">

    <location netOffset="-7.87,0.00" convBoundary="0.00,0.00,1874.72,100.00" origBoundary="7.87,0.00,1882.60,100.00" projParameter="!"/>

    <edge id=":A0_0" function="internal">
        <lane id=":A0_0_0" index="0" speed="3.99" length="6.70" shape="50.10,1.60,79.26 49.63,1.66,80.95 49.24,1.83,82.49 48.91,2.11,84.03 48.66,2.51,85.72"/>
    </edge>
    <edge id=":A0_1" function="internal">
        <lane id=":A0_1_0" index="0" speed="6.24" length="8.04" shape="45.77,1.12,85.72 46.54,-0.07,84.16 47.51,-0.92,82.74 48.70,-1.43,81.32 50.10,-1.60,79.77"/>
    </edge>
    <edge id=":A1_0" function="internal">
        <lane id=":A1_0_0" index="0" speed="6.16" length="10.71" shape="5.09,101.60,196.56 1.96,101.17,196.38 0.19,99.88,196.26 -0.21,97.73,196.14 0.76,94.72,195.97"/>
    </edge>
    <edge id=":A1_1" function="internal">
        <lane id=":A1_1_0" index="0" speed="3.94" length="3.68" shape="3.65,96.11,195.97 3.32,97.11,196.24 3.46,97.83,196.42 4.05,98.26,196.61 5.09,98.40,196.88"/>
    </edge>
    <edge id=":B0_0" function="internal">
        <lane id=":B0_0_0" index="0" speed="6.95" length="9.59" shape="119.02,1.60,-37.75 116.60,1.98,-37.75 114.78,3.12,-37.75 113.56,5.02,-37.75 112.93,7.68,-37.75"/>
    </edge>
    <edge id=":B0_1" function="internal">
        <lane id=":B0_1_0" index="0" speed="13.89" length="14.44" shape="119.02,1.60,-37.75 104.58,1.60,-37.75"/>
    </edge>
    <edge id=":B0_2" function="internal">
        <lane id=":B0_2_0" index="0" speed="3.65" length="2.34" shape="119.02,1.60,-37.75 117.82,0.80,-37.75 117.42,0.00,-37.75"/>
    </edge>
    <edge id=":B0_9" function="internal">
        <lane id=":B0_9_0" index="0" speed="3.65" length="2.34" shape="117.42,0.00,-37.75 117.82,-0.80,-37.75 119.02,-1.60,-37.75"/>
    </edge>
    <edge id=":B0_3" function="internal">
        <lane id=":B0_3_0" index="0" speed="13.89" length="14.44" shape="104.58,-1.60,-37.75 119.02,-1.60,-37.75"/>
    </edge>
    <edge id=":B0_4" function="internal">
        <lane id=":B0_4_0" index="0" speed="7.82" length="5.96" shape="104.58,-1.60,-37.75 108.61,-1.02,-37.75 110.21,-0.00,-37.75"/>
    </edge>
    <edge id=":B0_5" function="internal">
        <lane id=":B0_5_0" index="0" speed="3.65" length="2.34" shape="104.58,-1.60,-37.75 105.78,-0.80,-37.75 106.18,0.00,-37.75"/>
    </edge>
    <edge id=":B0_10" function="internal">
        <lane id=":B0_10_0" index="0" speed="7.82" length="8.65" shape="110.21,-0.00,-37.75 111.34,0.72,-37.75 112.78,3.62,-37.75 112.93,7.68,-37.75"/>
    </edge>
    <edge id=":B0_11" function="internal">
        <lane id=":B0_11_0" index="0" speed="3.65" length="2.34" shape="106.18,0.00,-37.75 105.78,0.80,-37.75 104.58,1.60,-37.75"/>
    </edge>
    <edge id=":B0_6" function="internal">
        <lane id=":B0_6_0" index="0" speed="6.29" length="9.04" shape="109.75,7.35,-37.75 109.66,4.83,-37.75 108.76,3.04,-37.75 107.07,1.96,-37.75 104.58,1.60,-37.75"/>
    </edge>
    <edge id=":B0_7" function="internal">
        <lane id=":B0_7_0" index="0" speed="8.37" length="14.37" shape="109.75,7.35,-37.75 110.69,3.43,-37.75 112.54,0.64,-37.75 115.32,-1.04,-37.75 119.02,-1.60,-37.75"/>
    </edge>
    <edge id=":B0_8" function="internal">
        <lane id=":B0_8_0" index="0" speed="3.65" length="4.67" shape="109.75,7.35,-37.75 110.67,6.24,-37.75 111.51,5.92,-37.75 112.26,6.41,-37.75 112.93,7.68,-37.75"/>
    </edge>
    <edge id=":B1_0" function="internal">
        <lane id=":B1_0_0" index="0" speed="13.89" length="14.44" shape="109.08,101.60,111.84 94.64,101.60,111.84"/>
    </edge>
    <edge id=":B1_1" function="internal">
        <lane id=":B1_1_0" index="0" speed="7.82" length="5.96" shape="109.08,101.60,111.84 105.05,101.02,111.84 103.45,100.00,111.84"/>
    </edge>
    <edge id=":B1_2" function="internal">
        <lane id=":B1_2_0" index="0" speed="3.65" length="2.34" shape="109.08,101.60,111.84 107.88,100.80,111.84 107.48,100.00,111.84"/>
    </edge>
    <edge id=":B1_9" function="internal">
        <lane id=":B1_9_0" index="0" speed="7.82" length="8.65" shape="103.45,100.00,111.84 102.32,99.28,111.84 100.88,96.38,111.84 100.73,92.32,111.84"/>
    </edge>
    <edge id=":B1_10" function="internal">
        <lane id=":B1_10_0" index="0" speed="3.65" length="2.34" shape="107.48,100.00,111.84 107.88,99.20,111.84 109.08,98.40,111.84"/>
    </edge>
    <edge id=":B1_3" function="internal">
        <lane id=":B1_3_0" index="0" speed="6.29" length="9.04" shape="103.91,92.65,111.84 104.00,95.17,111.84 104.90,96.96,111.84 106.59,98.04,111.84 109.08,98.40,111.84"/>
    </edge>
    <edge id=":B1_4" function="internal">
        <lane id=":B1_4_0" index="0" speed="8.37" length="14.37" shape="103.91,92.65,111.84 102.97,96.57,111.84 101.12,99.36,111.84 98.34,101.04,111.84 94.64,101.60,111.84"/>
    </edge>
    <edge id=":B1_5" function="internal">
        <lane id=":B1_5_0" index="0" speed="3.65" length="4.67" shape="103.91,92.65,111.84 102.99,93.76,111.84 102.15,94.08,111.84 101.40,93.59,111.84 100.73,92.32,111.84"/>
    </edge>
    <edge id=":B1_6" function="internal">
        <lane id=":B1_6_0" index="0" speed="6.95" length="9.59" shape="94.64,98.40,111.84 97.06,98.02,111.84 98.88,96.88,111.84 100.10,94.98,111.84 100.73,92.32,111.84"/>
    </edge>
    <edge id=":B1_7" function="internal">
        <lane id=":B1_7_0" index="0" speed="13.89" length="14.44" shape="94.64,98.40,111.84 109.08,98.40,111.84"/>
    </edge>
    <edge id=":B1_8" function="internal">
        <lane id=":B1_8_0" index="0" speed="3.65" length="2.34" shape="94.64,98.40,111.84 95.84,99.20,111.84 96.24,100.00,111.84"/>
    </edge>
    <edge id=":B1_11" function="internal">
        <lane id=":B1_11_0" index="0" speed="3.65" length="2.34" shape="96.24,100.00,111.84 95.84,100.80,111.84 94.64,101.60,111.84"/>
    </edge>
    <edge id=":C0_0" function="internal">
        <lane id=":C0_0_0" index="0" speed="6.63" length="9.19" shape="181.27,7.35,12.16 180.85,4.83,12.16 179.75,3.04,12.16 177.98,1.96,12.16 175.54,1.60,12.16"/>
    </edge>
    <edge id=":C0_1" function="internal">
        <lane id=":C0_1_0" index="0" speed="7.95" length="14.31" shape="181.27,7.35,12.16 181.71,3.43,12.16 183.30,0.64,12.16 186.04,-1.04,12.16 189.94,-1.60,12.16"/>
    </edge>
    <edge id=":C0_2" function="internal">
        <lane id=":C0_2_0" index="0" speed="3.65" length="4.67" shape="181.27,7.35,12.16 182.03,6.12,12.16 182.82,5.70,12.16 183.63,6.07,12.16 184.47,7.25,12.16"/>
    </edge>
    <edge id=":C0_3" function="internal">
        <lane id=":C0_3_0" index="0" speed="6.44" length="9.03" shape="189.94,1.60,12.16 187.48,1.95,12.16 185.75,3.01,12.16 184.75,4.78,12.16 184.47,7.25,12.16"/>
    </edge>
    <edge id=":C0_4" function="internal">
        <lane id=":C0_4_0" index="0" speed="13.89" length="14.40" shape="189.94,1.60,12.16 175.54,1.60,12.16"/>
    </edge>
    <edge id=":C0_5" function="internal">
        <lane id=":C0_5_0" index="0" speed="3.65" length="2.34" shape="189.94,1.60,12.16 188.74,0.80,12.16 188.34,0.00,12.16"/>
    </edge>
    <edge id=":C0_9" function="internal">
        <lane id=":C0_9_0" index="0" speed="3.65" length="2.34" shape="188.34,0.00,12.16 188.74,-0.80,12.16 189.94,-1.60,12.16"/>
    </edge>
    <edge id=":C0_6" function="internal">
        <lane id=":C0_6_0" index="0" speed="13.89" length="14.40" shape="175.54,-1.60,12.16 189.94,-1.60,12.16"/>
    </edge>
    <edge id=":C0_7" function="internal">
        <lane id=":C0_7_0" index="0" speed="8.11" length="5.87" shape="175.54,-1.60,12.16 179.34,-1.05,12.16 181.08,-0.00,12.16"/>
    </edge>
    <edge id=":C0_8" function="internal">
        <lane id=":C0_8_0" index="0" speed="3.65" length="2.34" shape="175.54,-1.60,12.16 176.74,-0.80,12.16 177.14,0.00,12.16"/>
    </edge>
    <edge id=":C0_10" function="internal">
        <lane id=":C0_10_0" index="0" speed="8.11" length="8.37" shape="181.08,-0.00,12.16 182.10,0.61,12.16 183.81,3.38,12.16 184.47,7.25,12.16"/>
    </edge>
    <edge id=":C0_11" function="internal">
        <lane id=":C0_11_0" index="0" speed="3.65" length="2.34" shape="177.14,0.00,12.16 176.74,0.80,12.16 175.54,1.60,12.16"/>
    </edge>
    <edge id=":C1_0" function="internal">
        <lane id=":C1_0_0" index="0" speed="13.89" length="14.40" shape="192.90,101.60,103.14 178.50,101.60,103.14"/>
    </edge>
    <edge id=":C1_1" function="internal">
        <lane id=":C1_1_0" index="0" speed="8.11" length="5.87" shape="192.90,101.60,103.14 189.10,101.05,103.14 187.36,100.00,103.14"/>
    </edge>
    <edge id=":C1_2" function="internal">
        <lane id=":C1_2_0" index="0" speed="3.65" length="2.34" shape="192.90,101.60,103.14 191.70,100.80,103.14 191.30,100.00,103.14"/>
    </edge>
    <edge id=":C1_9" function="internal">
        <lane id=":C1_9_0" index="0" speed="8.11" length="8.37" shape="187.36,100.00,103.14 186.34,99.39,103.14 184.63,96.62,103.14 183.97,92.75,103.14"/>
    </edge>
    <edge id=":C1_10" function="internal">
        <lane id=":C1_10_0" index="0" speed="3.65" length="2.34" shape="191.30,100.00,103.14 191.70,99.20,103.14 192.90,98.40,103.14"/>
    </edge>
    <edge id=":C1_3" function="internal">
        <lane id=":C1_3_0" index="0" speed="6.63" length="9.19" shape="187.17,92.65,103.14 187.60,95.17,103.14 188.69,96.96,103.14 190.46,98.04,103.14 192.90,98.40,103.14"/>
    </edge>
    <edge id=":C1_4" function="internal">
        <lane id=":C1_4_0" index="0" speed="7.95" length="14.31" shape="187.17,92.65,103.14 186.73,96.57,103.14 185.14,99.36,103.14 182.40,101.04,103.14 178.50,101.60,103.14"/>
    </edge>
    <edge id=":C1_5" function="internal">
        <lane id=":C1_5_0" index="0" speed="3.65" length="4.67" shape="187.17,92.65,103.14 186.41,93.88,103.14 185.62,94.30,103.14 184.81,93.93,103.14 183.97,92.75,103.14"/>
    </edge>
    <edge id=":C1_6" function="internal">
        <lane id=":C1_6_0" index="0" speed="6.44" length="9.03" shape="178.50,98.40,103.14 180.96,98.05,103.14 182.69,96.99,103.14 183.70,95.22,103.14 183.97,92.75,103.14"/>
    </edge>
    <edge id=":C1_7" function="internal">
        <lane id=":C1_7_0" index="0" speed="13.89" length="14.40" shape="178.50,98.40,103.14 192.90,98.40,103.14"/>
    </edge>
    <edge id=":C1_8" function="internal">
        <lane id=":C1_8_0" index="0" speed="3.65" length="2.34" shape="178.50,98.40,103.14 179.70,99.20,103.14 180.10,100.00,103.14"/>
    </edge>
    <edge id=":C1_11" function="internal">
        <lane id=":C1_11_0" index="0" speed="3.65" length="2.34" shape="180.10,100.00,103.14 179.70,100.80,103.14 178.50,101.60,103.14"/>
    </edge>
    <edge id=":D0_0" function="internal">
        <lane id=":D0_0_0" index="0" speed="7.47" length="10.22" shape="309.02,1.60,139.64 306.62,2.01,139.64 304.70,3.23,139.64 303.27,5.27,139.64 302.31,8.13,139.64"/>
    </edge>
    <edge id=":D0_1" function="internal">
        <lane id=":D0_1_0" index="0" speed="13.89" length="14.55" shape="309.02,1.60,139.64 294.47,1.60,139.64"/>
    </edge>
    <edge id=":D0_2" function="internal">
        <lane id=":D0_2_0" index="0" speed="3.65" length="2.34" shape="309.02,1.60,139.64 307.82,0.80,139.64 307.42,0.00,139.64"/>
    </edge>
    <edge id=":D0_9" function="internal">
        <lane id=":D0_9_0" index="0" speed="3.65" length="2.34" shape="307.42,0.00,139.64 307.82,-0.80,139.64 309.02,-1.60,139.64"/>
    </edge>
    <edge id=":D0_3" function="internal">
        <lane id=":D0_3_0" index="0" speed="13.89" length="14.55" shape="294.47,-1.60,139.64 309.02,-1.60,139.64"/>
    </edge>
    <edge id=":D0_4" function="internal">
        <lane id=":D0_4_0" index="0" speed="7.67" length="6.05" shape="294.47,-1.60,139.64 298.70,-0.99,139.64 300.17,0.00,139.64"/>
    </edge>
    <edge id=":D0_5" function="internal">
        <lane id=":D0_5_0" index="0" speed="3.65" length="2.34" shape="294.47,-1.60,139.64 295.67,-0.80,139.64 296.07,0.00,139.64"/>
    </edge>
    <edge id=":D0_10" function="internal">
        <lane id=":D0_10_0" index="0" speed="7.67" length="9.03" shape="300.17,0.00,139.64 301.41,0.83,139.64 302.62,3.87,139.64 302.31,8.13,139.64"/>
    </edge>
    <edge id=":D0_11" function="internal">
        <lane id=":D0_11_0" index="0" speed="3.65" length="2.34" shape="296.07,0.00,139.64 295.67,0.80,139.64 294.47,1.60,139.64"/>
    </edge>
    <edge id=":D0_6" function="internal">
        <lane id=":D0_6_0" index="0" speed="6.09" length="9.06" shape="299.19,7.45,139.64 299.37,4.89,139.64 298.64,3.06,139.64 297.01,1.97,139.64 294.47,1.60,139.64"/>
    </edge>
    <edge id=":D0_7" function="internal">
        <lane id=":D0_7_0" index="0" speed="8.82" length="14.61" shape="299.19,7.45,139.64 300.54,3.49,139.64 302.63,0.66,139.64 305.46,-1.03,139.64 309.02,-1.60,139.64"/>
    </edge>
    <edge id=":D0_8" function="internal">
        <lane id=":D0_8_0" index="0" speed="3.65" length="4.67" shape="299.19,7.45,139.64 300.22,6.45,139.64 301.09,6.23,139.64 301.79,6.79,139.64 302.31,8.13,139.64"/>
    </edge>
    <edge id=":D1_0" function="internal">
        <lane id=":D1_0_0" index="0" speed="13.89" length="14.55" shape="288.65,101.60,-19.36 274.10,101.60,-19.36"/>
    </edge>
    <edge id=":D1_1" function="internal">
        <lane id=":D1_1_0" index="0" speed="7.67" length="6.05" shape="288.65,101.60,-19.36 284.42,100.99,-19.36 282.95,100.00,-19.36"/>
    </edge>
    <edge id=":D1_2" function="internal">
        <lane id=":D1_2_0" index="0" speed="3.65" length="2.34" shape="288.65,101.60,-19.36 287.45,100.80,-19.36 287.05,100.00,-19.36"/>
    </edge>
    <edge id=":D1_9" function="internal">
        <lane id=":D1_9_0" index="0" speed="7.67" length="9.03" shape="282.95,100.00,-19.36 281.71,99.17,-19.36 280.50,96.13,-19.36 280.81,91.87,-19.36"/>
    </edge>
    <edge id=":D1_10" function="internal">
        <lane id=":D1_10_0" index="0" speed="3.65" length="2.34" shape="287.05,100.00,-19.36 287.45,99.20,-19.36 288.65,98.40,-19.36"/>
    </edge>
    <edge id=":D1_3" function="internal">
        <lane id=":D1_3_0" index="0" speed="6.09" length="9.06" shape="283.94,92.55,-19.36 283.75,95.11,-19.36 284.48,96.94,-19.36 286.11,98.03,-19.36 288.65,98.40,-19.36"/>
    </edge>
    <edge id=":D1_4" function="internal">
        <lane id=":D1_4_0" index="0" speed="8.82" length="14.61" shape="283.94,92.55,-19.36 282.58,96.51,-19.36 280.49,99.34,-19.36 277.66,101.03,-19.36 274.10,101.60,-19.36"/>
    </edge>
    <edge id=":D1_5" function="internal">
        <lane id=":D1_5_0" index="0" speed="3.65" length="4.67" shape="283.94,92.55,-19.36 282.90,93.55,-19.36 282.03,93.77,-19.36 281.34,93.21,-19.36 280.81,91.87,-19.36"/>
    </edge>
    <edge id=":D1_6" function="internal">
        <lane id=":D1_6_0" index="0" speed="7.47" length="10.22" shape="274.10,98.40,-19.36 276.50,97.99,-19.36 278.42,96.77,-19.36 279.86,94.73,-19.36 280.81,91.87,-19.36"/>
    </edge>
    <edge id=":D1_7" function="internal">
        <lane id=":D1_7_0" index="0" speed="13.89" length="14.55" shape="274.10,98.40,-19.36 288.65,98.40,-19.36"/>
    </edge>
    <edge id=":D1_8" function="internal">
        <lane id=":D1_8_0" index="0" speed="3.65" length="2.34" shape="274.10,98.40,-19.36 275.30,99.20,-19.36 275.70,100.00,-19.36"/>
    </edge>
    <edge id=":D1_11" function="internal">
        <lane id=":D1_11_0" index="0" speed="3.65" length="2.34" shape="275.70,100.00,-19.36 275.30,100.80,-19.36 274.10,101.60,-19.36"/>
    </edge>
    <edge id=":E0_0" function="internal">
        <lane id=":E0_0_0" index="0" speed="6.76" length="9.36" shape="399.63,1.60,-66.50 397.20,1.97,-66.50 395.41,3.07,-66.50 394.26,4.91,-66.50 393.75,7.49,-66.50"/>
    </edge>
    <edge id=":E0_1" function="internal">
        <lane id=":E0_1_0" index="0" speed="13.89" length="14.41" shape="399.63,1.60,-66.50 385.21,1.60,-66.50"/>
    </edge>
    <edge id=":E0_2" function="internal">
        <lane id=":E0_2_0" index="0" speed="3.65" length="2.34" shape="399.63,1.60,-66.50 398.43,0.80,-66.50 398.03,0.00,-66.50"/>
    </edge>
    <edge id=":E0_9" function="internal">
        <lane id=":E0_9_0" index="0" speed="3.65" length="2.34" shape="398.03,0.00,-66.50 398.43,-0.80,-66.50 399.63,-1.60,-66.50"/>
    </edge>
    <edge id=":E0_3" function="internal">
        <lane id=":E0_3_0" index="0" speed="13.89" length="14.41" shape="385.21,-1.60,-66.50 399.63,-1.60,-66.50"/>
    </edge>
    <edge id=":E0_4" function="internal">
        <lane id=":E0_4_0" index="0" speed="7.89" length="5.94" shape="385.21,-1.60,-66.50 389.16,-1.03,-66.50 390.82,-0.00,-66.50"/>
    </edge>
    <edge id=":E0_5" function="internal">
        <lane id=":E0_5_0" index="0" speed="3.65" length="2.34" shape="385.21,-1.60,-66.50 386.41,-0.80,-66.50 386.81,0.00,-66.50"/>
    </edge>
    <edge id=":E0_10" function="internal">
        <lane id=":E0_10_0" index="0" speed="7.89" length="8.49" shape="390.82,-0.00,-66.50 391.90,0.67,-66.50 393.43,3.51,-66.50 393.75,7.49,-66.50"/>
    </edge>
    <edge id=":E0_11" function="internal">
        <lane id=":E0_11_0" index="0" speed="3.65" length="2.34" shape="386.81,0.00,-66.50 386.41,0.80,-66.50 385.21,1.60,-66.50"/>
    </edge>
    <edge id=":E0_6" function="internal">
        <lane id=":E0_6_0" index="0" speed="6.37" length="9.04" shape="390.56,7.29,-66.50 390.36,4.80,-66.50 389.40,3.02,-66.50 387.69,1.96,-66.50 385.21,1.60,-66.50"/>
    </edge>
    <edge id=":E0_7" function="internal">
        <lane id=":E0_7_0" index="0" speed="8.21" length="14.29" shape="390.56,7.29,-66.50 391.34,3.40,-66.50 393.11,0.62,-66.50 395.87,-1.04,-66.50 399.63,-1.60,-66.50"/>
    </edge>
    <edge id=":E0_8" function="internal">
        <lane id=":E0_8_0" index="0" speed="3.65" length="4.67" shape="390.56,7.29,-66.50 391.43,6.14,-66.50 392.26,5.80,-66.50 393.03,6.25,-66.50 393.75,7.49,-66.50"/>
    </edge>
    <edge id=":E1_0" function="internal">
        <lane id=":E1_0_0" index="0" speed="13.89" length="14.41" shape="393.75,101.60,51.13 379.34,101.60,51.13"/>
    </edge>
    <edge id=":E1_1" function="internal">
        <lane id=":E1_1_0" index="0" speed="7.89" length="5.94" shape="393.75,101.60,51.13 389.80,101.03,51.13 388.14,100.00,51.13"/>
    </edge>
    <edge id=":E1_2" function="internal">
        <lane id=":E1_2_0" index="0" speed="3.65" length="2.34" shape="393.75,101.60,51.13 392.55,100.80,51.13 392.15,100.00,51.13"/>
    </edge>
    <edge id=":E1_9" function="internal">
        <lane id=":E1_9_0" index="0" speed="7.89" length="8.49" shape="388.14,100.00,51.13 387.06,99.33,51.13 385.53,96.49,51.13 385.21,92.51,51.13"/>
    </edge>
    <edge id=":E1_10" function="internal">
        <lane id=":E1_10_0" index="0" speed="3.65" length="2.34" shape="392.15,100.00,51.13 392.55,99.20,51.13 393.75,98.40,51.13"/>
    </edge>
    <edge id=":E1_3" function="internal">
        <lane id=":E1_3_0" index="0" speed="6.37" length="9.04" shape="388.40,92.71,51.13 388.60,95.20,51.13 389.56,96.98,51.13 391.28,98.04,51.13 393.75,98.40,51.13"/>
    </edge>
    <edge id=":E1_4" function="internal">
        <lane id=":E1_4_0" index="0" speed="8.21" length="14.29" shape="388.40,92.71,51.13 387.63,96.60,51.13 385.86,99.38,51.13 383.09,101.04,51.13 379.34,101.60,51.13"/>
    </edge>
    <edge id=":E1_5" function="internal">
        <lane id=":E1_5_0" index="0" speed="3.65" length="4.67" shape="388.40,92.71,51.13 387.53,93.86,51.13 386.71,94.20,51.13 385.93,93.75,51.13 385.21,92.51,51.13"/>
    </edge>
    <edge id=":E1_6" function="internal">
        <lane id=":E1_6_0" index="0" speed="6.76" length="9.36" shape="379.34,98.40,51.13 381.77,98.03,51.13 383.56,96.93,51.13 384.70,95.09,51.13 385.21,92.51,51.13"/>
    </edge>
    <edge id=":E1_7" function="internal">
        <lane id=":E1_7_0" index="0" speed="13.89" length="14.41" shape="379.34,98.40,51.13 393.75,98.40,51.13"/>
    </edge>
    <edge id=":E1_8" function="internal">
        <lane id=":E1_8_0" index="0" speed="3.65" length="2.34" shape="379.34,98.40,51.13 380.54,99.20,51.13 380.94,100.00,51.13"/>
    </edge>
    <edge id=":E1_11" function="internal">
        <lane id=":E1_11_0" index="0" speed="3.65" length="2.34" shape="380.94,100.00,51.13 380.54,100.80,51.13 379.34,101.60,51.13"/>
    </edge>
    <edge id=":F0_0" function="internal">
        <lane id=":F0_0_0" index="0" speed="7.06" length="9.73" shape="481.36,1.60,56.48 478.95,1.99,56.48 477.10,3.15,56.48 475.84,5.08,56.48 475.14,7.79,56.48"/>
    </edge>
    <edge id=":F0_1" function="internal">
        <lane id=":F0_1_0" index="0" speed="13.89" length="14.46" shape="481.36,1.60,56.48 466.90,1.60,56.48"/>
    </edge>
    <edge id=":F0_2" function="internal">
        <lane id=":F0_2_0" index="0" speed="3.65" length="2.34" shape="481.36,1.60,56.48 480.16,0.80,56.48 479.76,0.00,56.48"/>
    </edge>
    <edge id=":F0_9" function="internal">
        <lane id=":F0_9_0" index="0" speed="3.65" length="2.34" shape="479.76,0.00,56.48 480.16,-0.80,56.48 481.36,-1.60,56.48"/>
    </edge>
    <edge id=":F0_3" function="internal">
        <lane id=":F0_3_0" index="0" speed="13.89" length="14.46" shape="466.90,-1.60,56.48 481.36,-1.60,56.48"/>
    </edge>
    <edge id=":F0_4" function="internal">
        <lane id=":F0_4_0" index="0" speed="7.78" length="5.98" shape="466.90,-1.60,56.48 470.97,-1.01,56.48 472.54,-0.00,56.48"/>
    </edge>
    <edge id=":F0_5" function="internal">
        <lane id=":F0_5_0" index="0" speed="3.65" length="2.34" shape="466.90,-1.60,56.48 468.10,-0.80,56.48 468.50,0.00,56.48"/>
    </edge>
    <edge id=":F0_10" function="internal">
        <lane id=":F0_10_0" index="0" speed="7.78" length="8.74" shape="472.54,-0.00,56.48 473.70,0.75,56.48 475.09,3.68,56.48 475.14,7.79,56.48"/>
    </edge>
    <edge id=":F0_11" function="internal">
        <lane id=":F0_11_0" index="0" speed="3.65" length="2.34" shape="468.50,0.00,56.48 468.10,0.80,56.48 466.90,1.60,56.48"/>
    </edge>
    <edge id=":F0_6" function="internal">
        <lane id=":F0_6_0" index="0" speed="6.24" length="9.05" shape="471.97,7.37,56.48 471.94,4.85,56.48 471.08,3.04,56.48 469.41,1.96,56.48 466.90,1.60,56.48"/>
    </edge>
    <edge id=":F0_7" function="internal">
        <lane id=":F0_7_0" index="0" speed="8.47" length="14.42" shape="471.97,7.37,56.48 473.00,3.45,56.48 474.91,0.64,56.48 477.69,-1.04,56.48 481.36,-1.60,56.48"/>
    </edge>
    <edge id=":F0_8" function="internal">
        <lane id=":F0_8_0" index="0" speed="3.65" length="4.67" shape="471.97,7.37,56.48 472.92,6.29,56.48 473.76,6.00,56.48 474.51,6.50,56.48 475.14,7.79,56.48"/>
    </edge>
    <edge id=":F1_0" function="internal">
        <lane id=":F1_0_0" index="0" speed="13.89" length="14.46" shape="469.05,101.60,-90.56 454.59,101.60,-90.56"/>
    </edge>
    <edge id=":F1_1" function="internal">
        <lane id=":F1_1_0" index="0" speed="7.78" length="5.98" shape="469.05,101.60,-90.56 464.98,101.01,-90.56 463.41,100.00,-90.56"/>
    </edge>
    <edge id=":F1_2" function="internal">
        <lane id=":F1_2_0" index="0" speed="3.65" length="2.34" shape="469.05,101.60,-90.56 467.85,100.80,-90.56 467.45,100.00,-90.56"/>
    </edge>
    <edge id=":F1_9" function="internal">
        <lane id=":F1_9_0" index="0" speed="7.78" length="8.74" shape="463.41,100.00,-90.56 462.25,99.25,-90.56 460.86,96.32,-90.56 460.81,92.21,-90.56"/>
    </edge>
    <edge id=":F1_10" function="internal">
        <lane id=":F1_10_0" index="0" speed="3.65" length="2.34" shape="467.45,100.00,-90.56 467.85,99.20,-90.56 469.05,98.40,-90.56"/>
    </edge>
    <edge id=":F1_3" function="internal">
        <lane id=":F1_3_0" index="0" speed="6.24" length="9.05" shape="463.98,92.63,-90.56 464.01,95.15,-90.56 464.87,96.96,-90.56 466.55,98.04,-90.56 469.05,98.40,-90.56"/>
    </edge>
    <edge id=":F1_4" function="internal">
        <lane id=":F1_4_0" index="0" speed="8.47" length="14.42" shape="463.98,92.63,-90.56 462.95,96.55,-90.56 461.05,99.36,-90.56 458.26,101.04,-90.56 454.59,101.60,-90.56"/>
    </edge>
    <edge id=":F1_5" function="internal">
        <lane id=":F1_5_0" index="0" speed="3.65" length="4.67" shape="463.98,92.63,-90.56 463.03,93.71,-90.56 462.19,94.00,-90.56 461.45,93.50,-90.56 460.81,92.21,-90.56"/>
    </edge>
    <edge id=":F1_6" function="internal">
        <lane id=":F1_6_0" index="0" speed="7.06" length="9.73" shape="454.59,98.40,-90.56 457.01,98.01,-90.56 458.85,96.85,-90.56 460.12,94.92,-90.56 460.81,92.21,-90.56"/>
    </edge>
    <edge id=":F1_7" function="internal">
        <lane id=":F1_7_0" index="0" speed="13.89" length="14.46" shape="454.59,98.40,-90.56 469.05,98.40,-90.56"/>
    </edge>
    <edge id=":F1_8" function="internal">
        <lane id=":F1_8_0" index="0" speed="3.65" length="2.34" shape="454.59,98.40,-90.56 455.79,99.20,-90.56 456.19,100.00,-90.56"/>
    </edge>
    <edge id=":F1_11" function="internal">
        <lane id=":F1_11_0" index="0" speed="3.65" length="2.34" shape="456.19,100.00,-90.56 455.79,100.80,-90.56 454.59,101.60,-90.56"/>
    </edge>
    <edge id=":G0_0" function="internal">
        <lane id=":G0_0_0" index="0" speed="7.99" length="10.81" shape="607.51,1.60,128.66 605.11,2.03,128.66 603.09,3.32,128.66 601.43,5.46,128.66 600.15,8.47,128.66"/>
    </edge>
    <edge id=":G0_1" function="internal">
        <lane id=":G0_1_0" index="0" speed="13.89" length="14.72" shape="607.51,1.60,128.66 592.79,1.60,128.66"/>
    </edge>
    <edge id=":G0_2" function="internal">
        <lane id=":G0_2_0" index="0" speed="3.65" length="2.34" shape="607.51,1.60,128.66 606.31,0.80,128.66 605.91,0.00,128.66"/>
    </edge>
    <edge id=":G0_9" function="internal">
        <lane id=":G0_9_0" index="0" speed="3.65" length="2.34" shape="605.91,0.00,128.66 606.31,-0.80,128.66 607.51,-1.60,128.66"/>
    </edge>
    <edge id=":G0_3" function="internal">
        <lane id=":G0_3_0" index="0" speed="13.89" length="14.72" shape="592.79,-1.60,128.66 607.51,-1.60,128.66"/>
    </edge>
    <edge id=":G0_4" function="internal">
        <lane id=":G0_4_0" index="0" speed="7.56" length="6.16" shape="592.79,-1.60,128.66 597.22,-0.97,128.66 598.61,-0.00,128.66"/>
    </edge>
    <edge id=":G0_5" function="internal">
        <lane id=":G0_5_0" index="0" speed="3.65" length="2.34" shape="592.79,-1.60,128.66 593.99,-0.80,128.66 594.39,0.00,128.66"/>
    </edge>
    <edge id=":G0_10" function="internal">
        <lane id=":G0_10_0" index="0" speed="7.56" length="9.36" shape="598.61,-0.00,128.66 599.92,0.92,128.66 600.90,4.06,128.66 600.15,8.47,128.66"/>
    </edge>
    <edge id=":G0_11" function="internal">
        <lane id=":G0_11_0" index="0" speed="3.65" length="2.34" shape="594.39,0.00,128.66 593.99,0.80,128.66 592.79,1.60,128.66"/>
    </edge>
    <edge id=":G0_6" function="internal">
        <lane id=":G0_6_0" index="0" speed="5.94" length="9.09" shape="597.10,7.50,128.66 597.54,4.92,128.66 596.97,3.07,128.66 595.38,1.97,128.66 592.79,1.60,128.66"/>
    </edge>
    <edge id=":G0_7" function="internal">
        <lane id=":G0_7_0" index="0" speed="9.28" length="14.88" shape="597.10,7.50,128.66 598.84,3.52,128.66 601.16,0.67,128.66 604.05,-1.03,128.66 607.51,-1.60,128.66"/>
    </edge>
    <edge id=":G0_8" function="internal">
        <lane id=":G0_8_0" index="0" speed="3.65" length="4.67" shape="597.10,7.50,128.66 598.23,6.60,128.66 599.11,6.46,128.66 599.75,7.08,128.66 600.15,8.47,128.66"/>
    </edge>
    <edge id=":G1_0" function="internal">
        <lane id=":G1_0_0" index="0" speed="13.89" length="14.72" shape="577.66,101.60,38.04 562.94,101.60,38.04"/>
    </edge>
    <edge id=":G1_1" function="internal">
        <lane id=":G1_1_0" index="0" speed="7.56" length="6.16" shape="577.66,101.60,38.04 573.24,100.97,38.04 571.85,100.00,38.04"/>
    </edge>
    <edge id=":G1_2" function="internal">
        <lane id=":G1_2_0" index="0" speed="3.65" length="2.34" shape="577.66,101.60,38.04 576.46,100.80,38.04 576.06,100.00,38.04"/>
    </edge>
    <edge id=":G1_9" function="internal">
        <lane id=":G1_9_0" index="0" speed="7.56" length="9.36" shape="571.85,100.00,38.04 570.54,99.08,38.04 569.56,95.94,38.04 570.30,91.53,38.04"/>
    </edge>
    <edge id=":G1_10" function="internal">
        <lane id=":G1_10_0" index="0" speed="3.65" length="2.34" shape="576.06,100.00,38.04 576.46,99.20,38.04 577.66,98.40,38.04"/>
    </edge>
    <edge id=":G1_3" function="internal">
        <lane id=":G1_3_0" index="0" speed="5.94" length="9.09" shape="573.35,92.50,38.04 572.91,95.08,38.04 573.49,96.93,38.04 575.07,98.03,38.04 577.66,98.40,38.04"/>
    </edge>
    <edge id=":G1_4" function="internal">
        <lane id=":G1_4_0" index="0" speed="9.28" length="14.88" shape="573.35,92.50,38.04 571.61,96.48,38.04 569.30,99.33,38.04 566.41,101.03,38.04 562.94,101.60,38.04"/>
    </edge>
    <edge id=":G1_5" function="internal">
        <lane id=":G1_5_0" index="0" speed="3.65" length="4.67" shape="573.35,92.50,38.04 572.22,93.40,38.04 571.34,93.54,38.04 570.70,92.92,38.04 570.30,91.53,38.04"/>
    </edge>
    <edge id=":G1_6" function="internal">
        <lane id=":G1_6_0" index="0" speed="7.99" length="10.81" shape="562.94,98.40,38.04 565.34,97.97,38.04 567.37,96.68,38.04 569.02,94.54,38.04 570.30,91.53,38.04"/>
    </edge>
    <edge id=":G1_7" function="internal">