<?xml version="1.0" encoding="UTF-8"?>

<!-- generated on 07/22/20 21:49:40 by Eclipse SUMO netgenerate Version 1.5.0
<configuration xmlns:xsi="http://www.w3.org/2001/XMLSchema-instance" xsi:noNamespaceSchemaLocation="http://sumo.dlr.de/xsd/netgenerateConfiguration.xsd">

    <grid_network>
        <grid value="true"/>
        <grid.x-number value="20"/>
        <grid.y-number value="2"/>
    </grid_network>

    <output>
        <output-file value="9.net.xml"/>
    </output>

    <processing>
        <perturb-x value="40"/>
        <perturb-z value="100"/>
    </processing>

    <random_number>
        <seed value="43974353"/>
    </random_number>

</configuration>
-->

<net version="1.3" junctionCornerDetail="5" limitTurnSpeed="5.50" xmlns:xsi="http://www.w3.org/2001/XMLSchema-instance" xsi:noNamespaceSchemaLocation="http://sumo.dlr.de/xsd/net_file.xsd">

    <location netOffset="-6.93,0.00" convBoundary="0.00,0.00,1955.26,100.00" origBoundary="6.93,0.00,1962.18,100.00" projParameter="!"/>

    <edge id=":A0_0" function="internal">
        <lane id=":A0_0_0" index="0" speed="3.91" length="5.57" shape="8.16,1.60,-135.44 7.49,1.69,-134.08 7.00,1.98,-132.95 6.70,2.45,-131.81 6.57,3.12,-130.45"/>
    </edge>
    <edge id=":A0_1" function="internal">
        <lane id=":A0_1_0" index="0" speed="6.08" length="9.27" shape="3.37,2.95,-130.45 3.76,0.96,-131.95 4.69,-0.46,-133.20 6.15,-1.32,-134.45 8.16,-1.60,-135.95"/>
    </edge>
    <edge id=":A1_0" function="internal">
        <lane id=":A1_0_0" index="0" speed="6.07" length="9.17" shape="3.37,101.60,212.78 1.17,101.28,211.55 -0.36,100.34,210.56 -1.22,98.76,209.57 -1.43,96.55,208.35"/>
    </edge>
    <edge id=":A1_1" function="internal">
        <lane id=":A1_1_0" index="0" speed="3.90" length="5.70" shape="1.77,96.72,208.35 1.84,97.45,209.74 2.13,97.98,210.86 2.64,98.29,211.99 3.37,98.40,213.38"/>
    </edge>
    <edge id=":B0_0" function="internal">
        <lane id=":B0_0_0" index="0" speed="6.98" length="9.63" shape="85.19,7.72,4.54 84.55,5.04,4.54 83.31,3.13,4.54 81.49,1.98,4.54 79.07,1.60,4.54"/>
    </edge>
    <edge id=":B0_1" function="internal">
        <lane id=":B0_1_0" index="0" speed="7.81" length="14.64" shape="85.19,7.72,4.54 85.32,3.64,4.54 86.74,0.73,4.54 89.48,-1.02,4.54 93.51,-1.60,4.54"/>
    </edge>
    <edge id=":B0_2" function="internal">
        <lane id=":B0_2_0" index="0" speed="3.65" length="4.67" shape="85.19,7.72,4.54 85.85,6.43,4.54 86.60,5.95,4.54 87.44,6.25,4.54 88.37,7.35,4.54"/>
    </edge>
    <edge id=":B0_3" function="internal">
        <lane id=":B0_3_0" index="0" speed="6.28" length="9.04" shape="93.51,1.60,4.54 91.02,1.96,4.54 89.33,3.04,4.54 88.45,4.84,4.54 88.37,7.35,4.54"/>
    </edge>
    <edge id=":B0_4" function="internal">
        <lane id=":B0_4_0" index="0" speed="13.89" length="14.44" shape="93.51,1.60,4.54 79.07,1.60,4.54"/>
    </edge>
    <edge id=":B0_5" function="internal">
        <lane id=":B0_5_0" index="0" speed="3.65" length="2.34" shape="93.51,1.60,4.54 92.31,0.80,4.54 91.91,0.00,4.54"/>
    </edge>
    <edge id=":B0_9" function="internal">
        <lane id=":B0_9_0" index="0" speed="3.65" length="2.34" shape="91.91,0.00,4.54 92.31,-0.80,4.54 93.51,-1.60,4.54"/>
    </edge>
    <edge id=":B0_6" function="internal">
        <lane id=":B0_6_0" index="0" speed="13.89" length="14.44" shape="79.07,-1.60,4.54 93.51,-1.60,4.54"/>
    </edge>
    <edge id=":B0_7" function="internal">
        <lane id=":B0_7_0" index="0" speed="8.40" length="5.74" shape="79.07,-1.60,4.54 82.76,-1.04,4.54 84.48,-0.00,4.54"/>
    </edge>
    <edge id=":B0_8" function="internal">
        <lane id=":B0_8_0" index="0" speed="3.65" length="2.34" shape="79.07,-1.60,4.54 80.27,-0.80,4.54 80.67,0.00,4.54"/>
    </edge>
    <edge id=":B0_10" function="internal">
        <lane id=":B0_10_0" index="0" speed="8.40" length="8.64" shape="84.48,-0.00,4.54 85.54,0.64,4.54 87.41,3.44,4.54 88.37,7.35,4.54"/>
    </edge>
    <edge id=":B0_11" function="internal">
        <lane id=":B0_11_0" index="0" speed="3.65" length="2.34" shape="80.67,0.00,4.54 80.27,0.80,4.54 79.07,1.60,4.54"/>
    </edge>
    <edge id=":B1_0" function="internal">
        <lane id=":B1_0_0" index="0" speed="13.89" length="14.44" shape="104.12,101.60,14.26 89.68,101.60,14.26"/>
    </edge>
    <edge id=":B1_1" function="internal">
        <lane id=":B1_1_0" index="0" speed="8.40" length="5.74" shape="104.12,101.60,14.26 100.43,101.04,14.26 98.71,100.00,14.26"/>
    </edge>
    <edge id=":B1_2" function="internal">
        <lane id=":B1_2_0" index="0" speed="3.65" length="2.34" shape="104.12,101.60,14.26 102.92,100.80,14.26 102.52,100.00,14.26"/>
    </edge>
    <edge id=":B1_9" function="internal">
        <lane id=":B1_9_0" index="0" speed="8.40" length="8.64" shape="98.71,100.00,14.26 97.65,99.36,14.26 95.78,96.56,14.26 94.82,92.65,14.26"/>
    </edge>
    <edge id=":B1_10" function="internal">
        <lane id=":B1_10_0" index="0" speed="3.65" length="2.34" shape="102.52,100.00,14.26 102.92,99.20,14.26 104.12,98.40,14.26"/>
    </edge>
    <edge id=":B1_3" function="internal">
        <lane id=":B1_3_0" index="0" speed="6.98" length="9.63" shape="98.00,92.28,14.26 98.64,94.96,14.26 99.87,96.87,14.26 101.70,98.02,14.26 104.12,98.40,14.26"/>
    </edge>
    <edge id=":B1_4" function="internal">
        <lane id=":B1_4_0" index="0" speed="7.81" length="14.64" shape="98.00,92.28,14.26 97.87,96.36,14.26 96.44,99.27,14.26 93.71,101.02,14.26 89.68,101.60,14.26"/>
    </edge>
    <edge id=":B1_5" function="internal">
        <lane id=":B1_5_0" index="0" speed="3.65" length="4.67" shape="98.00,92.28,14.26 97.34,93.57,14.26 96.59,94.05,14.26 95.75,93.75,14.26 94.82,92.65,14.26"/>
    </edge>
    <edge id=":B1_6" function="internal">
        <lane id=":B1_6_0" index="0" speed="6.28" length="9.04" shape="89.68,98.40,14.26 92.17,98.04,14.26 93.86,96.96,14.26 94.74,95.16,14.26 94.82,92.65,14.26"/>
    </edge>
    <edge id=":B1_7" function="internal">
        <lane id=":B1_7_0" index="0" speed="13.89" length="14.44" shape="89.68,98.40,14.26 104.12,98.40,14.26"/>
    </edge>
    <edge id=":B1_8" function="internal">
        <lane id=":B1_8_0" index="0" speed="3.65" length="2.34" shape="89.68,98.40,14.26 90.88,99.20,14.26 91.28,100.00,14.26"/>
    </edge>
    <edge id=":B1_11" function="internal">
        <lane id=":B1_11_0" index="0" speed="3.65" length="2.34" shape="91.28,100.00,14.26 90.88,100.80,14.26 89.68,101.60,14.26"/>
    </edge>
    <edge id=":C0_0" function="internal">
        <lane id=":C0_0_0" index="0" speed="8.22" length="11.06" shape="197.60,1.60,-139.75 195.20,2.04,-139.75 193.13,3.35,-139.75 191.38,5.53,-139.75 189.96,8.59,-139.75"/>
    </edge>
    <edge id=":C0_1" function="internal">
        <lane id=":C0_1_0" index="0" speed="13.89" length="14.80" shape="197.60,1.60,-139.75 182.80,1.60,-139.75"/>
    </edge>
    <edge id=":C0_2" function="internal">
        <lane id=":C0_2_0" index="0" speed="3.65" length="2.34" shape="197.60,1.60,-139.75 196.40,0.80,-139.75 196.00,0.00,-139.75"/>
    </edge>
    <edge id=":C0_9" function="internal">
        <lane id=":C0_9_0" index="0" speed="3.65" length="2.34" shape="196.00,0.00,-139.75 196.40,-0.80,-139.75 197.60,-1.60,-139.75"/>
    </edge>
    <edge id=":C0_3" function="internal">
        <lane id=":C0_3_0" index="0" speed="13.89" length="14.80" shape="182.80,-1.60,-139.75 197.60,-1.60,-139.75"/>
    </edge>
    <edge id=":C0_4" function="internal">
        <lane id=":C0_4_0" index="0" speed="7.53" length="6.22" shape="182.80,-1.60,-139.75 187.31,-0.96,-139.75 188.67,-0.00,-139.75"/>
    </edge>
    <edge id=":C0_5" function="internal">
        <lane id=":C0_5_0" index="0" speed="3.65" length="2.34" shape="182.80,-1.60,-139.75 184.00,-0.80,-139.75 184.40,0.00,-139.75"/>
    </edge>
    <edge id=":C0_10" function="internal">
        <lane id=":C0_10_0" index="0" speed="7.53" length="9.50" shape="188.67,-0.00,-139.75 190.00,0.95,-139.75 190.89,4.13,-139.75 189.96,8.59,-139.75"/>
    </edge>
    <edge id=":C0_11" function="internal">
        <lane id=":C0_11_0" index="0" speed="3.65" length="2.34" shape="184.40,0.00,-139.75 184.00,0.80,-139.75 182.80,1.60,-139.75"/>
    </edge>
    <edge id=":C0_6" function="internal">
        <lane id=":C0_6_0" index="0" speed="5.89" length="9.11" shape="186.95,7.51,-139.75 187.49,4.92,-139.75 186.97,3.08,-139.75 185.41,1.97,-139.75 182.80,1.60,-139.75"/>
    </edge>
    <edge id=":C0_7" function="internal">
        <lane id=":C0_7_0" index="0" speed="9.49" length="15.00" shape="186.95,7.51,-139.75 188.84,3.52,-139.75 191.25,0.68,-139.75 194.17,-1.03,-139.75 197.60,-1.60,-139.75"/>
    </edge>
    <edge id=":C0_8" function="internal">
        <lane id=":C0_8_0" index="0" speed="3.65" length="4.67" shape="186.95,7.51,-139.75 188.11,6.65,-139.75 188.99,6.54,-139.75 189.61,7.19,-139.75 189.96,8.59,-139.75"/>
    </edge>
    <edge id=":C1_0" function="internal">
        <lane id=":C1_0_0" index="0" speed="13.89" length="14.80" shape="163.84,101.60,-20.29 149.03,101.60,-20.29"/>
    </edge>
    <edge id=":C1_1" function="internal">
        <lane id=":C1_1_0" index="0" speed="7.53" length="6.22" shape="163.84,101.60,-20.29 159.33,100.96,-20.29 157.97,100.00,-20.29"/>
    </edge>
    <edge id=":C1_2" function="internal">
        <lane id=":C1_2_0" index="0" speed="3.65" length="2.34" shape="163.84,101.60,-20.29 162.64,100.80,-20.29 162.24,100.00,-20.29"/>
    </edge>
    <edge id=":C1_9" function="internal">
        <lane id=":C1_9_0" index="0" speed="7.53" length="9.50" shape="157.97,100.00,-20.29 156.63,99.05,-20.29 155.75,95.87,-20.29 156.68,91.41,-20.29"/>
    </edge>
    <edge id=":C1_10" function="internal">
        <lane id=":C1_10_0" index="0" speed="3.65" length="2.34" shape="162.24,100.00,-20.29 162.64,99.20,-20.29 163.84,98.40,-20.29"/>
    </edge>
    <edge id=":C1_3" function="internal">
        <lane id=":C1_3_0" index="0" speed="5.89" length="9.11" shape="159.69,92.49,-20.29 159.15,95.08,-20.29 159.66,96.92,-20.29 161.22,98.03,-20.29 163.84,98.40,-20.29"/>
    </edge>
    <edge id=":C1_4" function="internal">
        <lane id=":C1_4_0" index="0" speed="9.49" length="15.00" shape="159.69,92.49,-20.29 157.79,96.48,-20.29 155.38,99.32,-20.29 152.46,101.03,-20.29 149.03,101.60,-20.29"/>
    </edge>
    <edge id=":C1_5" function="internal">
        <lane id=":C1_5_0" index="0" speed="3.65" length="4.67" shape="159.69,92.49,-20.29 158.53,93.35,-20.29 157.64,93.46,-20.29 157.02,92.81,-20.29 156.68,91.41,-20.29"/>
    </edge>
    <edge id=":C1_6" function="internal">
        <lane id=":C1_6_0" index="0" speed="8.22" length="11.06" shape="149.03,98.40,-20.29 151.43,97.96,-20.29 153.51,96.65,-20.29 155.26,94.47,-20.29 156.68,91.41,-20.29"/>
    </edge>
    <edge id=":C1_7" function="internal">
        <lane id=":C1_7_0" index="0" speed="13.89" length="14.80" shape="149.03,98.40,-20.29 163.84,98.40,-20.29"/>
    </edge>
    <edge id=":C1_8" function="internal">
        <lane id=":C1_8_0" index="0" speed="3.65" length="2.34" shape="149.03,98.40,-20.29 150.23,99.20,-20.29 150.63,100.00,-20.29"/>
    </edge>
    <edge id=":C1_11" function="internal">
        <lane id=":C1_11_0" index="0" speed="3.65" length="2.34" shape="150.63,100.00,-20.29 150.23,100.80,-20.29 149.03,101.60,-20.29"/>
    </edge>
    <edge id=":D0_0" function="internal">
        <lane id=":D0_0_0" index="0" speed="7.04" length="9.71" shape="280.35,7.78,105.68 279.66,5.07,105.68 278.40,3.14,105.68 276.56,1.99,105.68 274.15,1.60,105.68"/>
    </edge>
    <edge id=":D0_1" function="internal">
        <lane id=":D0_1_0" index="0" speed="7.79" length="14.70" shape="280.35,7.78,105.68 280.41,3.67,105.68 281.81,0.74,105.68 284.54,-1.01,105.68 288.60,-1.60,105.68"/>
    </edge>
    <edge id=":D0_2" function="internal">
        <lane id=":D0_2_0" index="0" speed="3.65" length="4.67" shape="280.35,7.78,105.68 280.99,6.48,105.68 281.73,5.99,105.68 282.57,6.28,105.68 283.52,7.37,105.68"/>
    </edge>
    <edge id=":D0_3" function="internal">
        <lane id=":D0_3_0" index="0" speed="6.25" length="9.05" shape="288.60,1.60,105.68 286.10,1.96,105.68 284.42,3.04,105.68 283.56,4.85,105.68 283.52,7.37,105.68"/>
    </edge>
    <edge id=":D0_4" function="internal">
        <lane id=":D0_4_0" index="0" speed="13.89" length="14.45" shape="288.60,1.60,105.68 274.15,1.60,105.68"/>
    </edge>
    <edge id=":D0_5" function="internal">
        <lane id=":D0_5_0" index="0" speed="3.65" length="2.34" shape="288.60,1.60,105.68 287.40,0.80,105.68 287.00,0.00,105.68"/>
    </edge>
    <edge id=":D0_9" function="internal">
        <lane id=":D0_9_0" index="0" speed="3.65" length="2.34" shape="287.00,0.00,105.68 287.40,-0.80,105.68 288.60,-1.60,105.68"/>
    </edge>
    <edge id=":D0_6" function="internal">
        <lane id=":D0_6_0" index="0" speed="13.89" length="14.45" shape="274.15,-1.60,105.68 288.60,-1.60,105.68"/>
    </edge>
    <edge id=":D0_7" function="internal">
        <lane id=":D0_7_0" index="0" speed="8.45" length="5.72" shape="274.15,-1.60,105.68 277.82,-1.04,105.68 279.54,-0.00,105.68"/>
    </edge>
    <edge id=":D0_8" function="internal">
        <lane id=":D0_8_0" index="0" speed="3.65" length="2.34" shape="274.15,-1.60,105.68 275.35,-0.80,105.68 275.75,0.00,105.68"/>
    </edge>
    <edge id=":D0_10" function="internal">
        <lane id=":D0_10_0" index="0" speed="8.45" length="8.68" shape="279.54,-0.00,105.68 280.60,0.64,105.68 282.50,3.45,105.68 283.52,7.37,105.68"/>
    </edge>
    <edge id=":D0_11" function="internal">
        <lane id=":D0_11_0" index="0" speed="3.65" length="2.34" shape="275.75,0.00,105.68 275.35,0.80,105.68 274.15,1.60,105.68"/>
    </edge>
    <edge id=":D1_0" function="internal">
        <lane id=":D1_0_0" index="0" speed="13.89" length="14.45" shape="300.57,101.60,44.62 286.12,101.60,44.62"/>
    </edge>
    <edge id=":D1_1" function="internal">
        <lane id=":D1_1_0" index="0" speed="8.45" length="5.72" shape="300.57,101.60,44.62 296.90,101.04,44.62 295.18,100.00,44.62"/>
    </edge>
    <edge id=":D1_2" function="internal">
        <lane id=":D1_2_0" index="0" speed="3.65" length="2.34" shape="300.57,101.60,44.62 299.37,100.80,44.62 298.97,100.00,44.62"/>
    </edge>
    <edge id=":D1_9" function="internal">
        <lane id=":D1_9_0" index="0" speed="8.45" length="8.68" shape="295.18,100.00,44.62 294.11,99.36,44.62 292.21,96.55,44.62 291.20,92.63,44.62"/>
    </edge>
    <edge id=":D1_10" function="internal">
        <lane id=":D1_10_0" index="0" speed="3.65" length="2.34" shape="298.97,100.00,44.62 299.37,99.20,44.62 300.57,98.40,44.62"/>
    </edge>
    <edge id=":D1_3" function="internal">
        <lane id=":D1_3_0" index="0" speed="7.04" length="9.71" shape="294.37,92.22,44.62 295.06,94.93,44.62 296.32,96.86,44.62 298.15,98.01,44.62 300.57,98.40,44.62"/>
    </edge>
    <edge id=":D1_4" function="internal">
        <lane id=":D1_4_0" index="0" speed="7.79" length="14.70" shape="294.37,92.22,44.62 294.31,96.33,44.62 292.91,99.26,44.62 290.18,101.01,44.62 286.12,101.60,44.62"/>
    </edge>
    <edge id=":D1_5" function="internal">
        <lane id=":D1_5_0" index="0" speed="3.65" length="4.67" shape="294.37,92.22,44.62 293.73,93.52,44.62 292.99,94.01,44.62 292.14,93.72,44.62 291.20,92.63,44.62"/>
    </edge>
    <edge id=":D1_6" function="internal">
        <lane id=":D1_6_0" index="0" speed="6.25" length="9.05" shape="286.12,98.40,44.62 288.62,98.04,44.62 290.30,96.96,44.62 291.16,95.15,44.62 291.20,92.63,44.62"/>
    </edge>
    <edge id=":D1_7" function="internal">
        <lane id=":D1_7_0" index="0" speed="13.89" length="14.45" shape="286.12,98.40,44.62 300.57,98.40,44.62"/>
    </edge>
    <edge id=":D1_8" function="internal">
        <lane id=":D1_8_0" index="0" speed="3.65" length="2.34" shape="286.12,98.40,44.62 287.32,99.20,44.62 287.72,100.00,44.62"/>
    </edge>
    <edge id=":D1_11" function="internal">
        <lane id=":D1_11_0" index="0" speed="3.65" length="2.34" shape="287.72,100.00,44.62 287.32,100.80,44.62 286.12,101.60,44.62"/>
    </edge>
    <edge id=":E0_0" function="internal">
        <lane id=":E0_0_0" index="0" speed="10.47" length="13.22" shape="449.02,1.60,81.24 446.57,2.08,81.24 444.04,3.51,81.24 441.44,5.90,81.24 438.76,9.24,81.24"/>
    </edge>
    <edge id=":E0_1" function="internal">
        <lane id=":E0_1_0" index="0" speed="13.89" length="15.85" shape="449.02,1.60,81.24 433.16,1.60,81.24"/>
    </edge>
    <edge id=":E0_2" function="internal">
        <lane id=":E0_2_0" index="0" speed="3.65" length="2.34" shape="449.02,1.60,81.24 447.82,0.80,81.24 447.42,0.00,81.24"/>
    </edge>
    <edge id=":E0_9" function="internal">
        <lane id=":E0_9_0" index="0" speed="3.65" length="2.34" shape="447.42,0.00,81.24 447.82,-0.80,81.24 449.02,-1.60,81.24"/>
    </edge>
    <edge id=":E0_3" function="internal">
        <lane id=":E0_3_0" index="0" speed="13.89" length="15.85" shape="433.16,-1.60,81.24 449.02,-1.60,81.24"/>
    </edge>
    <edge id=":E0_4" function="internal">
        <lane id=":E0_4_0" index="0" speed="7.38" length="6.92" shape="433.16,-1.60,81.24 438.50,-0.92,81.24 439.73,-0.00,81.24"/>
    </edge>
    <edge id=":E0_5" function="internal">
        <lane id=":E0_5_0" index="0" speed="3.65" length="2.34" shape="433.16,-1.60,81.24 434.36,-0.80,81.24 434.76,0.00,81.24"/>
    </edge>
    <edge id=":E0_10" function="internal">
        <lane id=":E0_10_0" index="0" speed="7.38" length="10.62" shape="439.73,-0.00,81.24 441.21,1.11,81.24 441.30,4.50,81.24 438.76,9.24,81.24"/>
    </edge>
    <edge id=":E0_11" function="internal">
        <lane id=":E0_11_0" index="0" speed="3.65" length="2.34" shape="434.76,0.00,81.24 434.36,0.80,81.24 433.16,1.60,81.24"/>
    </edge>
    <edge id=":E0_6" function="internal">
        <lane id=":E0_6_0" index="0" speed="5.58" length="9.36" shape="436.15,7.39,81.24 437.51,4.86,81.24 437.46,3.05,81.24 436.01,1.96,81.24 433.16,1.60,81.24"/>
    </edge>
    <edge id=":E0_7" function="internal">
        <lane id=":E0_7_0" index="0" speed="11.57" length="16.26" shape="436.15,7.39,81.24 439.35,3.46,81.24 442.56,0.65,81.24 445.79,-1.04,81.24 449.02,-1.60,81.24"/>
    </edge>
    <edge id=":E0_8" function="internal">
        <lane id=":E0_8_0" index="0" speed="3.65" length="4.67" shape="436.15,7.39,81.24 437.50,6.87,81.24 438.38,7.01,81.24 438.80,7.80,81.24 438.76,9.24,81.24"/>
    </edge>
    <edge id=":E1_0" function="internal">
        <lane id=":E1_0_0" index="0" speed="13.89" length="15.85" shape="382.43,101.60,-186.85 366.57,101.60,-186.85"/>
    </edge>
    <edge id=":E1_1" function="internal">
        <lane id=":E1_1_0" index="0" speed="7.38" length="6.92" shape="382.43,101.60,-186.85 377.09,100.92,-186.85 375.86,100.00,-186.85"/>
    </edge>
    <edge id=":E1_2" function="internal">
        <lane id=":E1_2_0" index="0" speed="3.65" length="2.34" shape="382.43,101.60,-186.85 381.23,100.80,-186.85 380.83,100.00,-186.85"/>
    </edge>
    <edge id=":E1_9" function="internal">
        <lane id=":E1_9_0" index="0" speed="7.38" length="10.62" shape="375.86,100.00,-186.85 374.38,98.89,-186.85 374.29,95.50,-186.85 376.83,90.76,-186.85"/>
    </edge>
    <edge id=":E1_10" function="internal">
        <lane id=":E1_10_0" index="0" speed="3.65" length="2.34" shape="380.83,100.00,-186.85 381.23,99.20,-186.85 382.43,98.40,-186.85"/>
    </edge>
    <edge id=":E1_3" function="internal">
        <lane id=":E1_3_0" index="0" speed="5.58" length="9.36" shape="379.44,92.61,-186.85 378.08,95.14,-186.85 378.13,96.95,-186.85 379.58,98.04,-186.85 382.43,98.40,-186.85"/>
    </edge>
    <edge id=":E1_4" function="internal">
        <lane id=":E1_4_0" index="0" speed="11.57" length="16.26" shape="379.44,92.61,-186.85 376.24,96.54,-186.85 373.03,99.35,-186.85 369.80,101.04,-186.85 366.57,101.60,-186.85"/>
    </edge>
    <edge id=":E1_5" function="internal">
        <lane id=":E1_5_0" index="0" speed="3.65" length="4.67" shape="379.44,92.61,-186.85 378.09,93.13,-186.85 377.21,92.99,-186.85 376.79,92.20,-186.85 376.83,90.76,-186.85"/>
    </edge>
    <edge id=":E1_6" function="internal">
        <lane id=":E1_6_0" index="0" speed="10.47" length="13.22" shape="366.57,98.40,-186.85 369.02,97.92,-186.85 371.55,96.49,-186.85 374.15,94.10,-186.85 376.83,90.76,-186.85"/>
    </edge>
    <edge id=":E1_7" function="internal">
        <lane id=":E1_7_0" index="0" speed="13.89" length="15.85" shape="366.57,98.40,-186.85 382.43,98.40,-186.85"/>
    </edge>
    <edge id=":E1_8" function="internal">
        <lane id=":E1_8_0" index="0" speed="3.65" length="2.34" shape="366.57,98.40,-186.85 367.77,99.20,-186.85 368.17,100.00,-186.85"/>
    </edge>
    <edge id=":E1_11" function="internal">
        <lane id=":E1_11_0" index="0" speed="3.65" length="2.34" shape="368.17,100.00,-186.85 367.77,100.80,-186.85 366.57,101.60,-186.85"/>
    </edge>
    <edge id=":F0_0" function="internal">
        <lane id=":F0_0_0" index="0" speed="7.49" length="10.25" shape="539.75,1.60,-76.60 537.35,2.01,-76.60 535.43,3.24,-76.60 533.98,5.28,-76.60 533.02,8.15,-76.60"/>
    </edge>
    <edge id=":F0_1" function="internal">
        <lane id=":F0_1_0" index="0" speed="13.89" length="14.56" shape="539.75,1.60,-76.60 525.20,1.60,-76.60"/>
    </edge>
    <edge id=":F0_2" function="internal">
        <lane id=":F0_2_0" index="0" speed="3.65" length="2.34" shape="539.75,1.60,-76.60 538.55,0.80,-76.60 538.15,0.00,-76.60"/>
    </edge>
    <edge id=":F0_9" function="internal">
        <lane id=":F0_9_0" index="0" speed="3.65" length="2.34" shape="538.15,0.00,-76.60 538.55,-0.80,-76.60 539.75,-1.60,-76.60"/>
    </edge>
    <edge id=":F0_3" function="internal">
        <lane id=":F0_3_0" index="0" speed="13.89" length="14.56" shape="525.20,-1.60,-76.60 539.75,-1.60,-76.60"/>
    </edge>
    <edge id=":F0_4" function="internal">
        <lane id=":F0_4_0" index="0" speed="7.66" length="6.05" shape="525.20,-1.60,-76.60 529.43,-0.99,-76.60 530.90,0.00,-76.60"/>
    </edge>
    <edge id=":F0_5" function="internal">
        <lane id=":F0_5_0" index="0" speed="3.65" length="2.34" shape="525.20,-1.60,-76.60 526.40,-0.80,-76.60 526.80,0.00,-76.60"/>
    </edge>
    <edge id=":F0_10" function="internal">
        <lane id=":F0_10_0" index="0" speed="7.66" length="9.05" shape="530.90,0.00,-76.60 532.14,0.84,-76.60 533.34,3.88,-76.60 533.02,8.15,-76.60"/>
    </edge>
    <edge id=":F0_11" function="internal">
        <lane id=":F0_11_0" index="0" speed="3.65" length="2.34" shape="526.80,0.00,-76.60 526.40,0.80,-76.60 525.20,1.60,-76.60"/>
    </edge>
    <edge id=":F0_6" function="internal">
        <lane id=":F0_6_0" index="0" speed="6.09" length="9.06" shape="529.89,7.45,-76.60 530.09,4.89,-76.60 529.37,3.06,-76.60 527.74,1.97,-76.60 525.20,1.60,-76.60"/>
    </edge>
    <edge id=":F0_7" function="internal">
        <lane id=":F0_7_0" index="0" speed="8.84" length="14.62" shape="529.89,7.45,-76.60 531.26,3.49,-76.60 533.36,0.66,-76.60 536.19,-1.03,-76.60 539.75,-1.60,-76.60"/>
    </edge>
    <edge id=":F0_8" function="internal">
        <lane id=":F0_8_0" index="0" speed="3.65" length="4.67" shape="529.89,7.45,-76.60 530.93,6.45,-76.60 531.80,6.24,-76.60 532.49,6.80,-76.60 533.02,8.15,-76.60"/>
    </edge>
    <edge id=":F1_0" function="internal">
        <lane id=":F1_0_0" index="0" speed="13.89" length="57.95" shape="515.13,101.60,59.82 504.39,101.60,2.87"/>
    </edge>
    <edge id=":F1_1" function="internal">
        <lane id=":F1_1_0" index="0" speed="7.00" length="3.92" shape="515.13,101.60,59.82 514.32,101.41,55.99"/>
    </edge>
    <edge id=":F1_2" function="internal">
        <lane id=":F1_2_0" index="0" speed="3.65" length="2.34" shape="515.13,101.60,59.82 513.93,100.80,59.82 513.53,100.00,59.82"/>
    </edge>
    <edge id=":F1_9" function="internal">
        <lane id=":F1_9_0" index="0" speed="7.00" length="54.36" shape="514.32,101.41,55.99 512.57,100.99,47.73 511.05,99.16,36.80 510.57,96.12,22.64 511.13,91.85,2.87"/>
    </edge>
    <edge id=":F1_10" function="internal">
        <lane id=":F1_10_0" index="0" speed="3.65" length="2.34" shape="513.53,100.00,59.82 513.93,99.20,59.82 515.13,98.40,59.82"/>
    </edge>
    <edge id=":F1_3" function="internal">
        <lane id=":F1_3_0" index="0" speed="5.29" length="57.32" shape="514.26,92.55,2.87 513.82,95.11,25.45 513.82,96.94,41.36 514.26,98.03,51.62 515.13,98.40,59.82"/>
    </edge>
    <edge id=":F1_4" function="internal">
        <lane id=":F1_4_0" index="0" speed="8.84" length="14.62" shape="514.26,92.55,2.87 512.88,96.51,2.87 510.78,99.34,2.87 507.95,101.03,2.87 504.39,101.60,2.87"/>
    </edge>
    <edge id=":F1_5" function="internal">
        <lane id=":F1_5_0" index="0" speed="3.65" length="4.67" shape="514.26,92.55,2.87 513.21,93.55,2.87 512.35,93.76,2.87 511.65,93.20,2.87 511.13,91.85,2.87"/>
    </edge>
    <edge id=":F1_6" function="internal">
        <lane id=":F1_6_0" index="0" speed="7.49" length="10.25" shape="504.39,98.40,2.87 506.80,97.99,2.87 508.72,96.76,2.87 510.16,94.72,2.87 511.13,91.85,2.87"/>
    </edge>
    <edge id=":F1_7" function="internal">
        <lane id=":F1_7_0" index="0" speed="13.89" length="57.95" shape="504.39,98.40,2.87 515.13,98.40,59.82"/>
    </edge>
    <edge id=":F1_8" function="internal">
        <lane id=":F1_8_0" index="0" speed="3.65" length="2.34" shape="504.39,98.40,2.87 505.59,99.20,2.87 505.99,100.00,2.87"/>
    </edge>
    <edge id=":F1_11" function="internal">
        <lane id=":F1_11_0" index="0" speed="3.65" length="2.34" shape="505.99,100.00,2.87 505.59,100.80,2.87 504.39,101.60,2.87"/>
    </edge>
    <edge id=":G0_0" function="internal">
        <lane id=":G0_0_0" index="0" speed="11.51" length="14.08" shape="607.42,1.60,42.16 604.93,2.08,42.16 602.22,3.54,42.16 599.27,5.96,42.16 596.09,9.36,42.16"/>
    </edge>
    <edge id=":G0_1" function="internal">
        <lane id=":G0_1_0" index="0" speed="13.89" length="16.40" shape="607.42,1.60,42.16 591.02,1.60,42.16"/>
    </edge>
    <edge id=":G0_2" function="internal">
        <lane id=":G0_2_0" index="0" speed="3.65" length="2.34" shape="607.42,1.60,42.16 606.22,0.80,42.16 605.82,0.00,42.16"/>
    </edge>
    <edge id=":G0_9" function="internal">
        <lane id=":G0_9_0" index="0" speed="3.65" length="2.34" shape="605.82,0.00,42.16 606.22,-0.80,42.16 607.42,-1.60,42.16"/>
    </edge>
    <edge id=":G0_3" function="internal">
        <lane id=":G0_3_0" index="0" speed="13.89" length="16.40" shape="591.02,-1.60,42.16 607.42,-1.60,42.16"/>
    </edge>
    <edge id=":G0_4" function="internal">
        <lane id=":G0_4_0" index="0" speed="7.39" length="7.28" shape="591.02,-1.60,42.16 596.73,-0.92,42.16 597.95,-0.00,42.16"/>
    </edge>
    <edge id=":G0_5" function="internal">
        <lane id=":G0_5_0" index="0" speed="3.65" length="2.34" shape="591.02,-1.60,42.16 592.22,-0.80,42.16 592.62,0.00,42.16"/>
    </edge>
    <edge id=":G0_10" function="internal">
        <lane id=":G0_10_0" index="0" speed="7.39" length="11.08" shape="597.95,-0.00,42.16 599.48,1.14,42.16 599.26,4.56,42.16 596.09,9.36,42.16"/>
    </edge>
    <edge id=":G0_11" function="internal">
        <lane id=":G0_11_0" index="0" speed="3.65" length="2.34" shape="592.62,0.00,42.16 592.22,0.80,42.16 591.02,1.60,42.16"/>
    </edge>
    <edge id=":G0_6" function="internal">
        <lane id=":G0_6_0" index="0" speed="5.52" length="9.52" shape="593.65,7.28,42.16 595.30,4.80,42.16 595.41,3.02,42.16 593.98,1.96,42.16 591.02,1.60,42.16"/>
    </edge>
    <edge id=":G0_7" function="internal">
        <lane id=":G0_7_0" index="0" speed="12.55" length="16.84" shape="593.65,7.28,42.16 597.34,3.40,42.16 600.87,0.62,42.16 604.23,-1.04,42.16 607.42,-1.60,42.16"/>
    </edge>
    <edge id=":G0_8" function="internal">
        <lane id=":G0_8_0" index="0" speed="3.65" length="4.67" shape="593.65,7.28,42.16 595.04,6.89,42.16 595.91,7.10,42.16 596.26,7.92,42.16 596.09,9.36,42.16"/>
    </edge>
    <edge id=":G1_0" function="internal">
        <lane id=":G1_0_0" index="0" speed="13.89" length="58.32" shape="527.90,101.60,116.77 515.33,101.60,59.82"/>
    </edge>
    <edge id=":G1_1" function="internal">
        <lane id=":G1_1_0" index="0" speed="7.39" length="7.28" shape="527.90,101.60,116.77 522.20,100.92,116.77 520.97,100.00,116.77"/>
    </edge>
    <edge id=":G1_2" function="internal">
        <lane id=":G1_2_0" index="0" speed="3.65" length="2.34" shape="527.90,101.60,116.77 526.70,100.80,116.77 526.30,100.00,116.77"/>
    </edge>
    <edge id=":G1_9" function="internal">
        <lane id=":G1_9_0" index="0" speed="7.39" length="11.08" shape="520.97,100.00,116.77 519.45,98.86,116.77 519.66,95.44,116.77 522.83,90.64,116.77"/>
    </edge>
    <edge id=":G1_10" function="internal">
        <lane id=":G1_10_0" index="0" speed="3.65" length="2.34" shape="526.30,100.00,116.77 526.70,99.20,116.77 527.90,98.40,116.77"/>
    </edge>
    <edge id=":G1_3" function="internal">
        <lane id=":G1_3_0" index="0" speed="5.52" length="9.52" shape="525.27,92.72,116.77 523.63,95.20,116.77 523.52,96.98,116.77 524.94,98.04,116.77 527.90,98.40,116.77"/>
    </edge>
    <edge id=":G1_4" function="internal">
        <lane id=":G1_4_0" index="0" speed="11.28" length="58.52" shape="525.27,92.72,116.77 521.82,96.60,94.84 519.01,99.38,78.18 516.85,101.04,66.65 515.33,101.60,59.82"/>
    </edge>
    <edge id=":G1_5" function="internal">
        <lane id=":G1_5_0" index="0" speed="3.65" length="4.67" shape="525.27,92.72,116.77 523.89,93.11,116.77 523.02,92.90,116.77 522.67,92.08,116.77 522.83,90.64,116.77"/>
    </edge>
    <edge id=":G1_6" function="internal">
        <lane id=":G1_6_0" index="0" speed="10.14" length="57.97" shape="515.33,98.40,59.82 516.83,97.30,69.63 519.21,94.81,87.75 521.53,92.18,106.18 522.83,90.64,116.77"/>
    </edge>
    <edge id=":G1_7" function="internal">
        <lane id=":G1_7_0" index="0" speed="13.89" length="58.32" shape="515.33,98.40,59.82 527.90,98.40,116.77"/>
    </edge>