<?xml version="1.0" encoding="UTF-8"?>

<!-- generated on Fri Nov  6 10:50:36 2020 by Eclipse SUMO netgenerate Version 1.7.0
<configuration xmlns:xsi="http://www.w3.org/2001/XMLSchema-instance" xsi:noNamespaceSchemaLocation="http://sumo.dlr.de/xsd/netgenerateConfiguration.xsd">

    <grid_network>
        <grid value="true"/>
        <grid.x-number value="301"/>
        <grid.y-number value="2"/>
    </grid_network>

    <output>
        <output-file value="9.net.xml"/>
    </output>

    <processing>
        <perturb-z value="7"/>
    </processing>

    <building_defaults>
        <default.speed value="100"/>
    </building_defaults>

    <random_number>
        <seed value="71396192"/>
    </random_number>

</configuration>
-->

<net version="1.6" junctionCornerDetail="5" limitTurnSpeed="5.50" xmlns:xsi="http://www.w3.org/2001/XMLSchema-instance" xsi:noNamespaceSchemaLocation="http://sumo.dlr.de/xsd/net_file.xsd">

    <location netOffset="0.00,0.00" convBoundary="0.00,0.00,30000.00,100.00" origBoundary="0.00,0.00,30000.00,100.00" projParameter="!"/>

    <edge id=":AA0_0" function="internal">
        <lane id=":AA0_0_0" index="0" speed="6.08" length="7.75" shape="-1.60,3.20,4.23 -1.30,1.10,4.15 -0.40,-0.40,4.08 1.10,-1.30,4.01 3.20,-1.60,3.93"/>
    </edge>
    <edge id=":AA0_1" function="internal">
        <lane id=":AA0_1_0" index="0" speed="3.90" length="2.60" shape="3.20,1.60,3.94 2.50,1.70,4.02 2.00,2.00,4.08 1.70,2.50,4.15 1.60,3.20,4.23"/>
    </edge>
    <edge id=":AA1_0" function="internal">
        <lane id=":AA1_0_0" index="0" speed="6.08" length="7.75" shape="3.20,101.60,15.63 1.10,101.30,15.72 -0.40,100.40,15.79 -1.30,98.90,15.85 -1.60,96.80,15.94"/>
    </edge>
    <edge id=":AA1_1" function="internal">
        <lane id=":AA1_1_0" index="0" speed="3.90" length="2.59" shape="1.60,96.80,15.94 1.70,97.50,15.87 2.00,98.00,15.81 2.50,98.30,15.75 3.20,98.40,15.68"/>
    </edge>
    <edge id=":AB0_0" function="internal">
        <lane id=":AB0_0_0" index="0" speed="6.51" length="9.03" shape="98.40,7.20,7.08 98.05,4.75,7.08 97.00,3.00,7.08 95.25,1.95,7.08 92.80,1.60,7.08"/>
    </edge>
    <edge id=":AB0_1" function="internal">
        <lane id=":AB0_1_0" index="0" speed="8.00" length="14.19" shape="98.40,7.20,7.08 98.95,3.35,7.08 100.60,0.60,7.08 103.35,-1.05,7.08 107.20,-1.60,7.08"/>
    </edge>
    <edge id=":AB0_2" function="internal">
        <lane id=":AB0_2_0" index="0" speed="3.65" length="4.67" shape="98.40,7.20,7.08 99.20,6.00,7.08 100.00,5.60,7.08 100.80,6.00,7.08 101.60,7.20,7.08"/>
    </edge>
    <edge id=":AB0_3" function="internal">
        <lane id=":AB0_3_0" index="0" speed="6.51" length="9.03" shape="107.20,1.60,7.08 104.75,1.95,7.08 103.00,3.00,7.08 101.95,4.75,7.08 101.60,7.20,7.08"/>
    </edge>
    <edge id=":AB0_4" function="internal">
        <lane id=":AB0_4_0" index="0" speed="100.00" length="14.40" shape="107.20,1.60,7.08 92.80,1.60,7.08"/>
    </edge>
    <edge id=":AB0_5" function="internal">
        <lane id=":AB0_5_0" index="0" speed="3.65" length="2.34" shape="107.20,1.60,7.08 106.00,0.80,7.08 105.60,0.00,7.08"/>
    </edge>
    <edge id=":AB0_9" function="internal">
        <lane id=":AB0_9_0" index="0" speed="3.65" length="2.34" shape="105.60,0.00,7.08 106.00,-0.80,7.08 107.20,-1.60,7.08"/>
    </edge>
    <edge id=":AB0_6" function="internal">
        <lane id=":AB0_6_0" index="0" speed="100.00" length="14.40" shape="92.80,-1.60,7.08 107.20,-1.60,7.08"/>
    </edge>
    <edge id=":AB0_7" function="internal">
        <lane id=":AB0_7_0" index="0" speed="8.00" length="5.93" shape="92.80,-1.60,7.08 96.65,-1.05,7.08 98.40,0.00,7.08"/>
    </edge>
    <edge id=":AB0_8" function="internal">
        <lane id=":AB0_8_0" index="0" speed="3.65" length="2.34" shape="92.80,-1.60,7.08 94.00,-0.80,7.08 94.40,0.00,7.08"/>
    </edge>
    <edge id=":AB0_10" function="internal">
        <lane id=":AB0_10_0" index="0" speed="8.00" length="8.26" shape="98.40,0.00,7.08 99.40,0.60,7.08 101.05,3.35,7.08 101.60,7.20,7.08"/>
    </edge>
    <edge id=":AB0_11" function="internal">
        <lane id=":AB0_11_0" index="0" speed="3.65" length="2.34" shape="94.40,0.00,7.08 94.00,0.80,7.08 92.80,1.60,7.08"/>
    </edge>
    <edge id=":AB1_0" function="internal">
        <lane id=":AB1_0_0" index="0" speed="100.00" length="14.40" shape="107.20,101.60,-4.32 92.80,101.60,-4.15"/>
    </edge>
    <edge id=":AB1_1" function="internal">
        <lane id=":AB1_1_0" index="0" speed="8.00" length="5.93" shape="107.20,101.60,-4.32 103.35,101.05,-4.27 101.60,100.00,-4.25"/>
    </edge>
    <edge id=":AB1_2" function="internal">
        <lane id=":AB1_2_0" index="0" speed="3.65" length="2.34" shape="107.20,101.60,-4.32 106.00,100.80,-4.32 105.60,100.00,-4.32"/>
    </edge>
    <edge id=":AB1_9" function="internal">
        <lane id=":AB1_9_0" index="0" speed="8.00" length="8.26" shape="101.60,100.00,-4.25 100.60,99.40,-4.24 98.95,96.65,-4.20 98.40,92.80,-4.15"/>
    </edge>
    <edge id=":AB1_10" function="internal">
        <lane id=":AB1_10_0" index="0" speed="3.65" length="2.34" shape="105.60,100.00,-4.32 106.00,99.20,-4.32 107.20,98.40,-4.32"/>
    </edge>
    <edge id=":AB1_3" function="internal">
        <lane id=":AB1_3_0" index="0" speed="6.51" length="9.03" shape="101.60,92.80,-4.15 101.95,95.25,-4.20 103.00,97.00,-4.24 104.75,98.05,-4.27 107.20,98.40,-4.32"/>
    </edge>
    <edge id=":AB1_4" function="internal">
        <lane id=":AB1_4_0" index="0" speed="8.00" length="14.19" shape="101.60,92.80,-4.15 101.05,96.65,-4.15 99.40,99.40,-4.15 96.65,101.05,-4.15 92.80,101.60,-4.15"/>
    </edge>
    <edge id=":AB1_5" function="internal">
        <lane id=":AB1_5_0" index="0" speed="3.65" length="4.67" shape="101.60,92.80,-4.15 100.80,94.00,-4.15 100.00,94.40,-4.15 99.20,94.00,-4.15 98.40,92.80,-4.15"/>
    </edge>
    <edge id=":AB1_6" function="internal">
        <lane id=":AB1_6_0" index="0" speed="6.51" length="9.03" shape="92.80,98.40,-4.15 95.25,98.05,-4.15 97.00,97.00,-4.15 98.05,95.25,-4.15 98.40,92.80,-4.15"/>
    </edge>
    <edge id=":AB1_7" function="internal">
        <lane id=":AB1_7_0" index="0" speed="100.00" length="14.40" shape="92.80,98.40,-4.15 107.20,98.40,-4.32"/>
    </edge>
    <edge id=":AB1_8" function="internal">
        <lane id=":AB1_8_0" index="0" speed="3.65" length="2.34" shape="92.80,98.40,-4.15 94.00,99.20,-4.15 94.40,100.00,-4.15"/>
    </edge>
    <edge id=":AB1_11" function="internal">
        <lane id=":AB1_11_0" index="0" speed="3.65" length="2.34" shape="94.40,100.00,-4.15 94.00,100.80,-4.15 92.80,101.60,-4.15"/>
    </edge>
    <edge id=":AC0_0" function="internal">
        <lane id=":AC0_0_0" index="0" speed="6.51" length="9.03" shape="198.40,7.20,1.21 198.05,4.75,1.21 197.00,3.00,1.21 195.25,1.95,1.21 192.80,1.60,1.21"/>
    </edge>
    <edge id=":AC0_1" function="internal">
        <lane id=":AC0_1_0" index="0" speed="8.00" length="14.19" shape="198.40,7.20,1.21 198.95,3.35,1.25 200.60,0.60,1.29 203.35,-1.05,1.32 207.20,-1.60,1.36"/>
    </edge>
    <edge id=":AC0_2" function="internal">
        <lane id=":AC0_2_0" index="0" speed="3.65" length="4.67" shape="198.40,7.20,1.21 199.20,6.00,1.21 200.00,5.60,1.21 200.80,6.00,1.21 201.60,7.20,1.21"/>
    </edge>
    <edge id=":AC0_3" function="internal">
        <lane id=":AC0_3_0" index="0" speed="6.51" length="9.03" shape="207.20,1.60,1.36 204.75,1.95,1.32 203.00,3.00,1.29 201.95,4.75,1.25 201.60,7.20,1.21"/>
    </edge>
    <edge id=":AC0_4" function="internal">
        <lane id=":AC0_4_0" index="0" speed="100.00" length="14.40" shape="207.20,1.60,1.36 192.80,1.60,1.21"/>
    </edge>
    <edge id=":AC0_5" function="internal">
        <lane id=":AC0_5_0" index="0" speed="3.65" length="2.34" shape="207.20,1.60,1.36 206.00,0.80,1.36 205.60,0.00,1.36"/>
    </edge>
    <edge id=":AC0_9" function="internal">
        <lane id=":AC0_9_0" index="0" speed="3.65" length="2.34" shape="205.60,0.00,1.36 206.00,-0.80,1.36 207.20,-1.60,1.36"/>
    </edge>
    <edge id=":AC0_6" function="internal">
        <lane id=":AC0_6_0" index="0" speed="100.00" length="14.40" shape="192.80,-1.60,1.21 207.20,-1.60,1.36"/>
    </edge>
    <edge id=":AC0_7" function="internal">
        <lane id=":AC0_7_0" index="0" speed="8.00" length="5.93" shape="192.80,-1.60,1.21 196.65,-1.05,1.21 198.40,0.00,1.21"/>
    </edge>
    <edge id=":AC0_8" function="internal">
        <lane id=":AC0_8_0" index="0" speed="3.65" length="2.34" shape="192.80,-1.60,1.21 194.00,-0.80,1.21 194.40,0.00,1.21"/>
    </edge>
    <edge id=":AC0_10" function="internal">
        <lane id=":AC0_10_0" index="0" speed="8.00" length="8.26" shape="198.40,0.00,1.21 199.40,0.60,1.21 201.05,3.35,1.21 201.60,7.20,1.21"/>
    </edge>
    <edge id=":AC0_11" function="internal">
        <lane id=":AC0_11_0" index="0" speed="3.65" length="2.34" shape="194.40,0.00,1.21 194.00,0.80,1.21 192.80,1.60,1.21"/>
    </edge>
    <edge id=":AC1_0" function="internal">
        <lane id=":AC1_0_0" index="0" speed="100.00" length="14.40" shape="207.20,101.60,-6.42 192.80,101.60,-6.26"/>
    </edge>
    <edge id=":AC1_1" function="internal">
        <lane id=":AC1_1_0" index="0" speed="8.00" length="5.93" shape="207.20,101.60,-6.42 203.35,101.05,-6.42 201.60,100.00,-6.42"/>
    </edge>
    <edge id=":AC1_2" function="internal">
        <lane id=":AC1_2_0" index="0" speed="3.65" length="2.34" shape="207.20,101.60,-6.42 206.00,100.80,-6.42 205.60,100.00,-6.42"/>
    </edge>
    <edge id=":AC1_9" function="internal">
        <lane id=":AC1_9_0" index="0" speed="8.00" length="8.26" shape="201.60,100.00,-6.42 200.60,99.40,-6.42 198.95,96.65,-6.42 198.40,92.80,-6.42"/>
    </edge>
    <edge id=":AC1_10" function="internal">
        <lane id=":AC1_10_0" index="0" speed="3.65" length="2.34" shape="205.60,100.00,-6.42 206.00,99.20,-6.42 207.20,98.40,-6.42"/>
    </edge>
    <edge id=":AC1_3" function="internal">
        <lane id=":AC1_3_0" index="0" speed="6.51" length="9.03" shape="201.60,92.80,-6.42 201.95,95.25,-6.42 203.00,97.00,-6.42 204.75,98.05,-6.42 207.20,98.40,-6.42"/>
    </edge>
    <edge id=":AC1_4" function="internal">
        <lane id=":AC1_4_0" index="0" speed="8.00" length="14.19" shape="201.60,92.80,-6.42 201.05,96.65,-6.38 199.40,99.40,-6.34 196.65,101.05,-6.30 192.80,101.60,-6.26"/>
    </edge>
    <edge id=":AC1_5" function="internal">
        <lane id=":AC1_5_0" index="0" speed="3.65" length="4.67" shape="201.60,92.80,-6.42 200.80,94.00,-6.42 200.00,94.40,-6.42 199.20,94.00,-6.42 198.40,92.80,-6.42"/>
    </edge>
    <edge id=":AC1_6" function="internal">
        <lane id=":AC1_6_0" index="0" speed="6.51" length="9.03" shape="192.80,98.40,-6.26 195.25,98.05,-6.30 197.00,97.00,-6.34 198.05,95.25,-6.38 198.40,92.80,-6.42"/>
    </edge>
    <edge id=":AC1_7" function="internal">
        <lane id=":AC1_7_0" index="0" speed="100.00" length="14.40" shape="192.80,98.40,-6.26 207.20,98.40,-6.42"/>
    </edge>
    <edge id=":AC1_8" function="internal">
        <lane id=":AC1_8_0" index="0" speed="3.65" length="2.34" shape="192.80,98.40,-6.26 194.00,99.20,-6.26 194.40,100.00,-6.26"/>
    </edge>
    <edge id=":AC1_11" function="internal">
        <lane id=":AC1_11_0" index="0" speed="3.65" length="2.34" shape="194.40,100.00,-6.26 194.00,100.80,-6.26 192.80,101.60,-6.26"/>
    </edge>
    <edge id=":AD0_0" function="internal">
        <lane id=":AD0_0_0" index="0" speed="6.51" length="9.03" shape="298.40,7.20,3.31 298.05,4.75,3.27 297.00,3.00,3.23 295.25,1.95,3.20 292.80,1.60,3.16"/>
    </edge>
    <edge id=":AD0_1" function="internal">
        <lane id=":AD0_1_0" index="0" speed="8.00" length="14.19" shape="298.40,7.20,3.31 298.95,3.35,3.31 300.60,0.60,3.31 303.35,-1.05,3.31 307.20,-1.60,3.31"/>
    </edge>
    <edge id=":AD0_2" function="internal">
        <lane id=":AD0_2_0" index="0" speed="3.65" length="4.67" shape="298.40,7.20,3.31 299.20,6.00,3.31 300.00,5.60,3.31 300.80,6.00,3.31 301.60,7.20,3.31"/>
    </edge>
    <edge id=":AD0_3" function="internal">
        <lane id=":AD0_3_0" index="0" speed="6.51" length="9.03" shape="307.20,1.60,3.31 304.75,1.95,3.31 303.00,3.00,3.31 301.95,4.75,3.31 301.60,7.20,3.31"/>
    </edge>
    <edge id=":AD0_4" function="internal">
        <lane id=":AD0_4_0" index="0" speed="100.00" length="14.40" shape="307.20,1.60,3.31 292.80,1.60,3.16"/>
    </edge>
    <edge id=":AD0_5" function="internal">
        <lane id=":AD0_5_0" index="0" speed="3.65" length="2.34" shape="307.20,1.60,3.31 306.00,0.80,3.31 305.60,0.00,3.31"/>
    </edge>
    <edge id=":AD0_9" function="internal">
        <lane id=":AD0_9_0" index="0" speed="3.65" length="2.34" shape="305.60,0.00,3.31 306.00,-0.80,3.31 307.20,-1.60,3.31"/>
    </edge>
    <edge id=":AD0_6" function="internal">
        <lane id=":AD0_6_0" index="0" speed="100.00" length="14.40" shape="292.80,-1.60,3.16 307.20,-1.60,3.31"/>
    </edge>
    <edge id=":AD0_7" function="internal">
        <lane id=":AD0_7_0" index="0" speed="8.00" length="5.93" shape="292.80,-1.60,3.16 296.65,-1.05,3.20 298.40,-0.00,3.22"/>
    </edge>
    <edge id=":AD0_8" function="internal">
        <lane id=":AD0_8_0" index="0" speed="3.65" length="2.34" shape="292.80,-1.60,3.16 294.00,-0.80,3.16 294.40,0.00,3.16"/>
    </edge>
    <edge id=":AD0_10" function="internal">
        <lane id=":AD0_10_0" index="0" speed="8.00" length="8.26" shape="298.40,-0.00,3.22 299.40,0.60,3.23 301.05,3.35,3.27 301.60,7.20,3.31"/>
    </edge>
    <edge id=":AD0_11" function="internal">
        <lane id=":AD0_11_0" index="0" speed="3.65" length="2.34" shape="294.40,0.00,3.16 294.00,0.80,3.16 292.80,1.60,3.16"/>
    </edge>
    <edge id=":AD1_0" function="internal">
        <lane id=":AD1_0_0" index="0" speed="100.00" length="14.40" shape="307.20,101.60,0.35 292.80,101.60,0.35"/>
    </edge>
    <edge id=":AD1_1" function="internal">
        <lane id=":AD1_1_0" index="0" speed="8.00" length="5.93" shape="307.20,101.60,0.35 303.35,101.05,0.35 301.60,100.00,0.35"/>
    </edge>
    <edge id=":AD1_2" function="internal">
        <lane id=":AD1_2_0" index="0" speed="3.65" length="2.34" shape="307.20,101.60,0.35 306.00,100.80,0.35 305.60,100.00,0.35"/>
    </edge>
    <edge id=":AD1_9" function="internal">
        <lane id=":AD1_9_0" index="0" speed="8.00" length="8.26" shape="301.60,100.00,0.35 300.60,99.40,0.35 298.95,96.65,0.35 298.40,92.80,0.35"/>
    </edge>
    <edge id=":AD1_10" function="internal">
        <lane id=":AD1_10_0" index="0" speed="3.65" length="2.34" shape="305.60,100.00,0.35 306.00,99.20,0.35 307.20,98.40,0.35"/>
    </edge>
    <edge id=":AD1_3" function="internal">
        <lane id=":AD1_3_0" index="0" speed="6.51" length="9.03" shape="301.60,92.80,0.35 301.95,95.25,0.35 303.00,97.00,0.35 304.75,98.05,0.35 307.20,98.40,0.35"/>
    </edge>
    <edge id=":AD1_4" function="internal">
        <lane id=":AD1_4_0" index="0" speed="8.00" length="14.19" shape="301.60,92.80,0.35 301.05,96.65,0.35 299.40,99.40,0.35 296.65,101.05,0.35 292.80,101.60,0.35"/>
    </edge>
    <edge id=":AD1_5" function="internal">
        <lane id=":AD1_5_0" index="0" speed="3.65" length="4.67" shape="301.60,92.80,0.35 300.80,94.00,0.35 300.00,94.40,0.35 299.20,94.00,0.35 298.40,92.80,0.35"/>
    </edge>
    <edge id=":AD1_6" function="internal">
        <lane id=":AD1_6_0" index="0" speed="6.51" length="9.03" shape="292.80,98.40,0.35 295.25,98.05,0.35 297.00,97.00,0.35 298.05,95.25,0.35 298.40,92.80,0.35"/>
    </edge>
    <edge id=":AD1_7" function="internal">
        <lane id=":AD1_7_0" index="0" speed="100.00" length="14.40" shape="292.80,98.40,0.35 307.20,98.40,0.35"/>
    </edge>
    <edge id=":AD1_8" function="internal">
        <lane id=":AD1_8_0" index="0" speed="3.65" length="2.34" shape="292.80,98.40,0.35 294.00,99.20,0.35 294.40,100.00,0.35"/>
    </edge>
    <edge id=":AD1_11" function="internal">
        <lane id=":AD1_11_0" index="0" speed="3.65" length="2.34" shape="294.40,100.00,0.35 294.00,100.80,0.35 292.80,101.60,0.35"/>
    </edge>
    <edge id=":AE0_0" function="internal">
        <lane id=":AE0_0_0" index="0" speed="6.51" length="9.03" shape="398.40,7.20,-4.80 398.05,4.75,-4.84 397.00,3.00,-4.87 395.25,1.95,-4.91 392.80,1.60,-4.95"/>
    </edge>
    <edge id=":AE0_1" function="internal">
        <lane id=":AE0_1_0" index="0" speed="8.00" length="14.19" shape="398.40,7.20,-4.80 398.95,3.35,-4.81 400.60,0.60,-4.81 403.35,-1.05,-4.82 407.20,-1.60,-4.83"/>
    </edge>
    <edge id=":AE0_2" function="internal">
        <lane id=":AE0_2_0" index="0" speed="3.65" length="4.67" shape="398.40,7.20,-4.80 399.20,6.00,-4.80 400.00,5.60,-4.80 400.80,6.00,-4.80 401.60,7.20,-4.80"/>
    </edge>
    <edge id=":AE0_3" function="internal">
        <lane id=":AE0_3_0" index="0" speed="6.51" length="9.03" shape="407.20,1.60,-4.83 404.75,1.95,-4.82 403.00,3.00,-4.81 401.95,4.75,-4.81 401.60,7.20,-4.80"/>
    </edge>
    <edge id=":AE0_4" function="internal">
        <lane id=":AE0_4_0" index="0" speed="100.00" length="14.40" shape="407.20,1.60,-4.83 392.80,1.60,-4.95"/>
    </edge>
    <edge id=":AE0_5" function="internal">
        <lane id=":AE0_5_0" index="0" speed="3.65" length="2.34" shape="407.20,1.60,-4.83 406.00,0.80,-4.83 405.60,0.00,-4.83"/>
    </edge>
    <edge id=":AE0_9" function="internal">
        <lane id=":AE0_9_0" index="0" speed="3.65" length="2.34" shape="405.60,0.00,-4.83 406.00,-0.80,-4.83 407.20,-1.60,-4.83"/>
    </edge>
    <edge id=":AE0_6" function="internal">
        <lane id=":AE0_6_0" index="0" speed="100.00" length="14.40" shape="392.80,-1.60,-4.95 407.20,-1.60,-4.83"/>
    </edge>
    <edge id=":AE0_7" function="internal">
        <lane id=":AE0_7_0" index="0" speed="8.00" length="5.93" shape="392.80,-1.60,-4.95 396.65,-1.05,-4.91 398.40,-0.00,-4.88"/>
    </edge>
    <edge id=":AE0_8" function="internal">
        <lane id=":AE0_8_0" index="0" speed="3.65" length="2.34" shape="392.80,-1.60,-4.95 394.00,-0.80,-4.95 394.40,0.00,-4.95"/>
    </edge>
    <edge id=":AE0_10" function="internal">
        <lane id=":AE0_10_0" index="0" speed="8.00" length="8.26" shape="398.40,-0.00,-4.88 399.40,0.60,-4.87 401.05,3.35,-4.84 401.60,7.20,-4.80"/>
    </edge>
    <edge id=":AE0_11" function="internal">
        <lane id=":AE0_11_0" index="0" speed="3.65" length="2.34" shape="394.40,0.00,-4.95 394.00,0.80,-4.95 392.80,1.60,-4.95"/>
    </edge>
    <edge id=":AE1_0" function="internal">
        <lane id=":AE1_0_0" index="0" speed="100.00" length="14.40" shape="407.20,101.60,-2.89 392.80,101.60,-2.89"/>
    </edge>
    <edge id=":AE1_1" function="internal">
        <lane id=":AE1_1_0" index="0" speed="8.00" length="5.93" shape="407.20,101.60,-2.89 403.35,101.05,-2.93 401.60,100.00,-2.96"/>
    </edge>
    <edge id=":AE1_2" function="internal">
        <lane id=":AE1_2_0" index="0" speed="3.65" length="2.34" shape="407.20,101.60,-2.89 406.00,100.80,-2.89 405.60,100.00,-2.89"/>
    </edge>
    <edge id=":AE1_9" function="internal">
        <lane id=":AE1_9_0" index="0" speed="8.00" length="8.26" shape="401.60,100.00,-2.96 400.60,99.40,-2.97 398.95,96.65,-3.00 398.40,92.80,-3.04"/>
    </edge>
    <edge id=":AE1_10" function="internal">
        <lane id=":AE1_10_0" index="0" speed="3.65" length="2.34" shape="405.60,100.00,-2.89 406.00,99.20,-2.89 407.20,98.40,-2.89"/>
    </edge>
    <edge id=":AE1_3" function="internal">
        <lane id=":AE1_3_0" index="0" speed="6.51" length="9.03" shape="401.60,92.80,-3.04 401.95,95.25,-3.00 403.00,97.00,-2.97 404.75,98.05,-2.93 407.20,98.40,-2.89"/>
    </edge>
    <edge id=":AE1_4" function="internal">
        <lane id=":AE1_4_0" index="0" speed="8.00" length="14.19" shape="401.60,92.80,-3.04 401.05,96.65,-3.00 399.40,99.40,-2.97 396.65,101.05,-2.93 392.80,101.60,-2.89"/>
    </edge>
    <edge id=":AE1_5" function="internal">
        <lane id=":AE1_5_0" index="0" speed="3.65" length="4.67" shape="401.60,92.80,-3.04 400.80,94.00,-3.04 400.00,94.40,-3.04 399.20,94.00,-3.04 398.40,92.80,-3.04"/>
    </edge>
    <edge id=":AE1_6" function="internal">
        <lane id=":AE1_6_0" index="0" speed="6.51" length="9.03" shape="392.80,98.40,-2.89 395.25,98.05,-2.93 397.00,97.00,-2.97 398.05,95.25,-3.00 398.40,92.80,-3.04"/>
    </edge>
    <edge id=":AE1_7" function="internal">
        <lane id=":AE1_7_0" index="0" speed="100.00" length="14.40" shape="392.80,98.40,-2.89 407.20,98.40,-2.89"/>
    </edge>
    <edge id=":AE1_8" function="internal">
        <lane id=":AE1_8_0" index="0" speed="3.65" length="2.34" shape="392.80,98.40,-2.89 394.00,99.20,-2.89 394.40,100.00,-2.89"/>
    </edge>
    <edge id=":AE1_11" function="internal">
        <lane id=":AE1_11_0" index="0" speed="3.65" length="2.34" shape="394.40,100.00,-2.89 394.00,100.80,-2.89 392.80,101.60,-2.89"/>
    </edge>
    <edge id=":AF0_0" function="internal">
        <lane id=":AF0_0_0" index="0" speed="6.51" length="9.03" shape="498.40,7.20,-3.31 498.05,4.75,-3.34 497.00,3.00,-3.37 495.25,1.95,-3.39 492.80,1.60,-3.42"/>
    </edge>
    <edge id=":AF0_1" function="internal">
        <lane id=":AF0_1_0" index="0" speed="8.00" length="14.19" shape="498.40,7.20,-3.31 498.95,3.35,-3.31 500.60,0.60,-3.31 503.35,-1.05,-3.30 507.20,-1.60,-3.30"/>
    </edge>
    <edge id=":AF0_2" function="internal">
        <lane id=":AF0_2_0" index="0" speed="3.65" length="4.67" shape="498.40,7.20,-3.31 499.20,6.00,-3.31 500.00,5.60,-3.31 500.80,6.00,-3.31 501.60,7.20,-3.31"/>
    </edge>
    <edge id=":AF0_3" function="internal">
        <lane id=":AF0_3_0" index="0" speed="6.51" length="9.03" shape="507.20,1.60,-3.30 504.75,1.95,-3.30 503.00,3.00,-3.31 501.95,4.75,-3.31 501.60,7.20,-3.31"/>
    </edge>
    <edge id=":AF0_4" function="internal">
        <lane id=":AF0_4_0" index="0" speed="100.00" length="14.40" shape="507.20,1.60,-3.30 492.80,1.60,-3.42"/>
    </edge>
    <edge id=":AF0_5" function="internal">
        <lane id=":AF0_5_0" index="0" speed="3.65" length="2.34" shape="507.20,1.60,-3.30 506.00,0.80,-3.30 505.60,0.00,-3.30"/>
    </edge>
    <edge id=":AF0_9" function="internal">
        <lane id=":AF0_9_0" index="0" speed="3.65" length="2.34" shape="505.60,0.00,-3.30 506.00,-0.80,-3.30 507.20,-1.60,-3.30"/>
    </edge>
    <edge id=":AF0_6" function="internal">
        <lane id=":AF0_6_0" index="0" speed="100.00" length="14.40" shape="492.80,-1.60,-3.42 507.20,-1.60,-3.30"/>
    </edge>
    <edge id=":AF0_7" function="internal">
        <lane id=":AF0_7_0" index="0" speed="8.00" length="5.93" shape="492.80,-1.60,-3.42 496.65,-1.05,-3.39 498.40,-0.00,-3.38"/>
    </edge>
    <edge id=":AF0_8" function="internal">
        <lane id=":AF0_8_0" index="0" speed="3.65" length="2.34" shape="492.80,-1.60,-3.42 494.00,-0.80,-3.42 494.40,0.00,-3.42"/>
    </edge>
    <edge id=":AF0_10" function="internal">
        <lane id=":AF0_10_0" index="0" speed="8.00" length="8.26" shape="498.40,-0.00,-3.38 499.40,0.60,-3.37 501.05,3.35,-3.34 501.60,7.20,-3.31"/>
    </edge>
    <edge id=":AF0_11" function="internal">
        <lane id=":AF0_11_0" index="0" speed="3.65" length="2.34" shape="494.40,0.00,-3.42 494.00,0.80,-3.42 492.80,1.60,-3.42"/>
    </edge>
    <edge id=":AF1_0" function="internal">
        <lane id=":AF1_0_0" index="0" speed="100.00" length="14.40" shape="507.20,101.60,2.65 492.80,101.60,2.65"/>
    </edge>
    <edge id=":AF1_1" function="internal">
        <lane id=":AF1_1_0" index="0" speed="8.00" length="5.93" shape="507.20,101.60,2.65 503.35,101.05,2.65 501.60,100.00,2.65"/>
    </edge>
    <edge id=":AF1_2" function="internal">
        <lane id=":AF1_2_0" index="0" speed="3.65" length="2.34" shape="507.20,101.60,2.65 506.00,100.80,2.65 505.60,100.00,2.65"/>
    </edge>
    <edge id=":AF1_9" function="internal">
        <lane id=":AF1_9_0" index="0" speed="8.00" length="8.26" shape="501.60,100.00,2.65 500.60,99.40,2.65 498.95,96.65,2.65 498.40,92.80,2.65"/>
    </edge>
    <edge id=":AF1_10" function="internal">
        <lane id=":AF1_10_0" index="0" speed="3.65" length="2.34" shape="505.60,100.00,2.65 506.00,99.20,2.65 507.20,98.40,2.65"/>
    </edge>
    <edge id=":AF1_3" function="internal">
        <lane id=":AF1_3_0" index="0" speed="6.51" length="9.03" shape="501.60,92.80,2.65 501.95,95.25,2.65 503.00,97.00,2.65 504.75,98.05,2.65 507.20,98.40,2.65"/>
    </edge>
    <edge id=":AF1_4" function="internal">
        <lane id=":AF1_4_0" index="0" speed="8.00" length="14.19" shape="501.60,92.80,2.65 501.05,96.65,2.65 499.40,99.40,2.65 496.65,101.05,2.65 492.80,101.60,2.65"/>
    </edge>
    <edge id=":AF1_5" function="internal">
        <lane id=":AF1_5_0" index="0" speed="3.65" length="4.67" shape="501.60,92.80,2.65 500.80,94.00,2.65 500.00,94.40,2.65 499.20,94.00,2.65 498.40,92.80,2.65"/>
    </edge>
    <edge id=":AF1_6" function="internal">
        <lane id=":AF1_6_0" index="0" speed="6.51" length="9.03" shape="492.80,98.40,2.65 495.25,98.05,2.65 497.00,97.00,2.65 498.05,95.25,2.65 498.40,92.80,2.65"/>
    </edge>
    <edge id=":AF1_7" function="internal">
        <lane id=":AF1_7_0" index="0" speed="100.00" length="14.40" shape="492.80,98.40,2.65 507.20,98.40,2.65"/>
    </edge>
    <edge id=":AF1_8" function="internal">
        <lane id=":AF1_8_0" index="0" speed="3.65" length="2.34" shape="492.80,98.40,2.65 494.00,99.20,2.65 494.40,100.00,2.65"/>
    </edge>
    <edge id=":AF1_11" function="internal">
        <lane id=":AF1_11_0" index="0" speed="3.65" length="2.34" shape="494.40,100.00,2.65 494.00,100.80,2.65 492.80,101.60,2.65"/>
    </edge>
    <edge id=":AG0_0" function="internal">
        <lane id=":AG0_0_0" index="0" speed="6.51" length="9.03" shape="598.40,7.20,-3.35 598.05,4.75,-3.33 597.00,3.00,-3.31 595.25,1.95,-3.30 592.80,1.60,-3.28"/>
    </edge>
    <edge id=":AG0_1" function="internal">
        <lane id=":AG0_1_0" index="0" speed="8.00" length="14.19" shape="598.40,7.20,-3.35 598.95,3.35,-3.32 600.60,0.60,-3.29 603.35,-1.05,-3.27 607.20,-1.60,-3.23"/>
    </edge>
    <edge id=":AG0_2" function="internal">
        <lane id=":AG0_2_0" index="0" speed="3.65" length="4.67" shape="598.40,7.20,-3.35 599.20,6.00,-3.35 600.00,5.60,-3.35 600.80,6.00,-3.35 601.60,7.20,-3.35"/>
    </edge>
    <edge id=":AG0_3" function="internal">
        <lane id=":AG0_3_0" index="0" speed="6.51" length="9.03" shape="607.20,1.60,-3.23 604.75,1.95,-3.27 603.00,3.00,-3.29 601.95,4.75,-3.32 601.60,7.20,-3.35"/>
    </edge>
    <edge id=":AG0_4" function="internal">
        <lane id=":AG0_4_0" index="0" speed="100.00" length="14.40" shape="607.20,1.60,-3.23 592.80,1.60,-3.28"/>
    </edge>
    <edge id=":AG0_5" function="internal">
        <lane id=":AG0_5_0" index="0" speed="3.65" length="2.34" shape="607.20,1.60,-3.23 606.00,0.80,-3.23 605.60,0.00,-3.23"/>
    </edge>
    <edge id=":AG0_9" function="internal">
        <lane id=":AG0_9_0" index="0" speed="3.65" length="2.34" shape="605.60,0.00,-3.23 606.00,-0.80,-3.23 607.20,-1.60,-3.23"/>
    </edge>
    <edge id=":AG0_6" function="internal">
        <lane id=":AG0_6_0" index="0" speed="100.00" length="14.40" shape="592.80,-1.60,-3.28 607.20,-1.60,-3.23"/>
    </edge>
    <edge id=":AG0_7" function="internal">
        <lane id=":AG0_7_0" index="0" speed="8.00" length="5.93" shape="592.80,-1.60,-3.28 596.65,-1.05,-3.30 598.40,-0.00,-3.31"/>
    </edge>
    <edge id=":AG0_8" function="internal">
        <lane id=":AG0_8_0" index="0" speed="3.65" length="2.34" shape="592.80,-1.60,-3.28 594.00,-0.80,-3.28 594.40,0.00,-3.28"/>
    </edge>
    <edge id=":AG0_10" function="internal">
        <lane id=":AG0_10_0" index="0" speed="8.00" length="8.26" shape="598.40,-0.00,-3.31 599.40,0.60,-3.31 601.05,3.35,-3.33 601.60,7.20,-3.35"/>
    </edge>
    <edge id=":AG0_11" function="internal">
        <lane id=":AG0_11_0" index="0" speed="3.65" length="2.34" shape="594.40,0.00,-3.28 594.00,0.80,-3.28 592.80,1.60,-3.28"/>
    </edge>
    <edge id=":AG1_0" function="internal">
        <lane id=":AG1_0_0" index="0" speed="100.00" length="14.40" shape="607.20,101.60,-4.32 592.80,101.60,-4.32"/>
    </edge>
    <edge id=":AG1_1" function="internal">
        <lane id=":AG1_1_0" index="0" speed="8.00" length="5.93" shape="607.20,101.60,-4.32 603.35,101.05,-4.30 601.60,100.00,-4.28"/>
    </edge>
    <edge id=":AG1_2" function="internal">
        <lane id=":AG1_2_0" index="0" speed="3.65" length="2.34" shape="607.20,101.60,-4.32 606.00,100.80,-4.32 605.60,100.00,-4.32"/>
    </edge>
    <edge id=":AG1_9" function="internal">
        <lane id=":AG1_9_0" index="0" speed="8.00" length="8.26" shape="601.60,100.00,-4.28 600.60,99.40,-4.28 598.95,96.65,-4.26 598.40,92.80,-4.24"/>
    </edge>
    <edge id=":AG1_10" function="internal">
        <lane id=":AG1_10_0" index="0" speed="3.65" length="2.34" shape="605.60,100.00,-4.32 606.00,99.20,-4.32 607.20,98.40,-4.32"/>
    </edge>
    <edge id=":AG1_3" function="internal">
        <lane id=":AG1_3_0" index="0" speed="6.51" length="9.03" shape="601.60,92.80,-4.24 601.95,95.25,-4.26 603.00,97.00,-4.28 604.75,98.05,-4.30 607.20,98.40,-4.32"/>
    </edge>
    <edge id=":AG1_4" function="internal">
        <lane id=":AG1_4_0" index="0" speed="8.00" length="14.19" shape="601.60,92.80,-4.24 601.05,96.65,-4.26 599.40,99.40,-4.28 596.65,101.05,-4.30 592.80,101.60,-4.32"/>
    </edge>
    <edge id=":AG1_5" function="internal">
        <lane id=":AG1_5_0" index="0" speed="3.65" length="4.67" shape="601.60,92.80,-4.24 600.80,94.00,-4.24 600.00,94.40,-4.24 599.20,94.00,-4.24 598.40,92.80,-4.24"/>
    </edge>
    <edge id=":AG1_6" function="internal">
        <lane id=":AG1_6_0" index="0" speed="6.51" length="9.03" shape="592.80,98.40,-4.32 595.25,98.05,-4.30 597.00,97.00,-4.28 598.05,95.25,-4.26 598.40,92.80,-4.24"/>
    </edge>
    <edge id=":AG1_7" function="internal">
        <lane id=":AG1_7_0" index="0" speed="100.00" length="14.40" shape="592.80,98.40,-4.32 607.20,98.40,-4.32"/>
    </edge>
    <edge id=":AG1_8" function="internal">