<?xml version="1.0" encoding="UTF-8"?>

<!-- generated on 07/24/20 11:51:59 by Eclipse SUMO netgenerate Version 1.5.0
<configuration xmlns:xsi="http://www.w3.org/2001/XMLSchema-instance" xsi:noNamespaceSchemaLocation="http://sumo.dlr.de/xsd/netgenerateConfiguration.xsd">

    <grid_network>
        <grid value="true"/>
        <grid.x-number value="20"/>
        <grid.y-number value="2"/>
    </grid_network>

    <output>
        <output-file value="9.net.xml"/>
    </output>

    <processing>
        <perturb-x value="10"/>
        <perturb-z value="30"/>
    </processing>

    <random_number>
        <seed value="5982279"/>
    </random_number>

</configuration>
-->

<net version="1.3" junctionCornerDetail="5" limitTurnSpeed="5.50" xmlns:xsi="http://www.w3.org/2001/XMLSchema-instance" xsi:noNamespaceSchemaLocation="http://sumo.dlr.de/xsd/net_file.xsd">

    <location netOffset="-3.42,0.00" convBoundary="0.00,0.00,1889.01,100.00" origBoundary="3.42,0.00,1892.43,100.00" projParameter="!"/>

    <edge id=":A0_0" function="internal">
        <lane id=":A0_0_0" index="0" speed="3.93" length="3.07" shape="23.51,1.60,23.85 22.92,1.68,24.41 22.47,1.92,24.91 22.14,2.32,25.41 21.94,2.87,25.97"/>
    </edge>
    <edge id=":A0_1" function="internal">
        <lane id=":A0_1_0" index="0" speed="6.12" length="6.93" shape="18.81,2.22,25.97 19.40,0.55,25.43 20.38,-0.65,24.96 21.75,-1.36,24.49 23.51,-1.60,23.95"/>
    </edge>
    <edge id=":A1_0" function="internal">
        <lane id=":A1_0_0" index="0" speed="6.08" length="8.97" shape="3.94,101.60,59.28 1.43,101.24,59.22 -0.19,100.15,59.17 -0.92,98.35,59.11 -0.76,95.82,59.05"/>
    </edge>
    <edge id=":A1_1" function="internal">
        <lane id=":A1_1_0" index="0" speed="3.91" length="3.01" shape="2.37,96.47,59.05 2.32,97.32,59.14 2.56,97.92,59.20 3.10,98.28,59.27 3.94,98.40,59.36"/>
    </edge>
    <edge id=":B0_0" function="internal">
        <lane id=":B0_0_0" index="0" speed="6.69" length="9.27" shape="112.33,1.60,-11.33 109.90,1.96,-11.33 108.12,3.05,-11.33 107.00,4.87,-11.33 106.54,7.42,-11.33"/>
    </edge>
    <edge id=":B0_1" function="internal">
        <lane id=":B0_1_0" index="0" speed="13.89" length="14.41" shape="112.33,1.60,-11.33 97.93,1.60,-11.33"/>
    </edge>
    <edge id=":B0_2" function="internal">
        <lane id=":B0_2_0" index="0" speed="3.65" length="2.34" shape="112.33,1.60,-11.33 111.13,0.80,-11.33 110.73,0.00,-11.33"/>
    </edge>
    <edge id=":B0_9" function="internal">
        <lane id=":B0_9_0" index="0" speed="3.65" length="2.34" shape="110.73,0.00,-11.33 111.13,-0.80,-11.33 112.33,-1.60,-11.33"/>
    </edge>
    <edge id=":B0_3" function="internal">
        <lane id=":B0_3_0" index="0" speed="13.89" length="14.41" shape="97.93,-1.60,-11.33 112.33,-1.60,-11.33"/>
    </edge>
    <edge id=":B0_4" function="internal">
        <lane id=":B0_4_0" index="0" speed="7.92" length="5.94" shape="97.93,-1.60,-11.33 101.85,-1.04,-11.33 103.53,0.00,-11.33"/>
    </edge>
    <edge id=":B0_5" function="internal">
        <lane id=":B0_5_0" index="0" speed="3.65" length="2.34" shape="97.93,-1.60,-11.33 99.13,-0.80,-11.33 99.53,-0.00,-11.33"/>
    </edge>
    <edge id=":B0_10" function="internal">
        <lane id=":B0_10_0" index="0" speed="7.92" length="8.43" shape="103.53,0.00,-11.33 104.59,0.65,-11.33 106.16,3.47,-11.33 106.54,7.42,-11.33"/>
    </edge>
    <edge id=":B0_11" function="internal">
        <lane id=":B0_11_0" index="0" speed="3.65" length="2.34" shape="99.53,-0.00,-11.33 99.13,0.80,-11.33 97.93,1.60,-11.33"/>
    </edge>
    <edge id=":B0_6" function="internal">
        <lane id=":B0_6_0" index="0" speed="6.41" length="9.04" shape="103.34,7.27,-11.33 103.10,4.79,-11.33 102.12,3.02,-11.33 100.39,1.95,-11.33 97.93,1.60,-11.33"/>
    </edge>
    <edge id=":B0_7" function="internal">
        <lane id=":B0_7_0" index="0" speed="8.16" length="14.26" shape="103.34,7.27,-11.33 104.06,3.39,-11.33 105.79,0.62,-11.33 108.55,-1.05,-11.33 112.33,-1.60,-11.33"/>
    </edge>
    <edge id=":B0_8" function="internal">
        <lane id=":B0_8_0" index="0" speed="3.65" length="4.67" shape="103.34,7.27,-11.33 104.20,6.11,-11.33 105.01,5.75,-11.33 105.79,6.18,-11.33 106.54,7.42,-11.33"/>
    </edge>
    <edge id=":B1_0" function="internal">
        <lane id=":B1_0_0" index="0" speed="13.89" length="14.41" shape="108.01,101.60,33.55 93.61,101.60,33.55"/>
    </edge>
    <edge id=":B1_1" function="internal">
        <lane id=":B1_1_0" index="0" speed="7.92" length="5.94" shape="108.01,101.60,33.55 104.09,101.04,33.55 102.41,100.00,33.55"/>
    </edge>
    <edge id=":B1_2" function="internal">
        <lane id=":B1_2_0" index="0" speed="3.65" length="2.34" shape="108.01,101.60,33.55 106.81,100.80,33.55 106.41,100.00,33.55"/>
    </edge>
    <edge id=":B1_9" function="internal">
        <lane id=":B1_9_0" index="0" speed="7.92" length="8.43" shape="102.41,100.00,33.55 101.35,99.35,33.55 99.78,96.53,33.55 99.40,92.58,33.55"/>
    </edge>
    <edge id=":B1_10" function="internal">
        <lane id=":B1_10_0" index="0" speed="3.65" length="2.34" shape="106.41,100.00,33.55 106.81,99.20,33.55 108.01,98.40,33.55"/>
    </edge>
    <edge id=":B1_3" function="internal">
        <lane id=":B1_3_0" index="0" speed="6.41" length="9.04" shape="102.60,92.73,33.55 102.84,95.21,33.55 103.82,96.98,33.55 105.55,98.05,33.55 108.01,98.40,33.55"/>
    </edge>
    <edge id=":B1_4" function="internal">
        <lane id=":B1_4_0" index="0" speed="8.16" length="14.26" shape="102.60,92.73,33.55 101.88,96.61,33.55 100.15,99.38,33.55 97.39,101.05,33.55 93.61,101.60,33.55"/>
    </edge>
    <edge id=":B1_5" function="internal">
        <lane id=":B1_5_0" index="0" speed="3.65" length="4.67" shape="102.60,92.73,33.55 101.74,93.89,33.55 100.93,94.25,33.55 100.15,93.82,33.55 99.40,92.58,33.55"/>
    </edge>
    <edge id=":B1_6" function="internal">
        <lane id=":B1_6_0" index="0" speed="6.69" length="9.27" shape="93.61,98.40,33.55 96.04,98.04,33.55 97.82,96.95,33.55 98.94,95.13,33.55 99.40,92.58,33.55"/>
    </edge>
    <edge id=":B1_7" function="internal">
        <lane id=":B1_7_0" index="0" speed="13.89" length="14.41" shape="93.61,98.40,33.55 108.01,98.40,33.55"/>
    </edge>
    <edge id=":B1_8" function="internal">
        <lane id=":B1_8_0" index="0" speed="3.65" length="2.34" shape="93.61,98.40,33.55 94.81,99.20,33.55 95.21,100.00,33.55"/>
    </edge>
    <edge id=":B1_11" function="internal">
        <lane id=":B1_11_0" index="0" speed="3.65" length="2.34" shape="95.21,100.00,33.55 94.81,100.80,33.55 93.61,101.60,33.55"/>
    </edge>
    <edge id=":C0_0" function="internal">
        <lane id=":C0_0_0" index="0" speed="6.56" length="9.10" shape="190.95,7.27,3.65 190.57,4.79,3.65 189.50,3.02,3.65 187.74,1.95,3.65 185.30,1.60,3.65"/>
    </edge>
    <edge id=":C0_1" function="internal">
        <lane id=":C0_1_0" index="0" speed="7.98" length="14.24" shape="190.95,7.27,3.65 191.45,3.39,3.65 193.08,0.62,3.65 195.83,-1.05,3.65 199.70,-1.60,3.65"/>
    </edge>
    <edge id=":C0_2" function="internal">
        <lane id=":C0_2_0" index="0" speed="3.65" length="4.67" shape="190.95,7.27,3.65 191.74,6.05,3.65 192.53,5.64,3.65 193.34,6.03,3.65 194.15,7.22,3.65"/>
    </edge>
    <edge id=":C0_3" function="internal">
        <lane id=":C0_3_0" index="0" speed="6.48" length="9.03" shape="199.70,1.60,3.65 197.24,1.95,3.65 195.50,3.01,3.65 194.47,4.76,3.65 194.15,7.22,3.65"/>
    </edge>
    <edge id=":C0_4" function="internal">
        <lane id=":C0_4_0" index="0" speed="13.89" length="14.40" shape="199.70,1.60,3.65 185.30,1.60,3.65"/>
    </edge>
    <edge id=":C0_5" function="internal">
        <lane id=":C0_5_0" index="0" speed="3.65" length="2.34" shape="199.70,1.60,3.65 198.50,0.80,3.65 198.10,0.00,3.65"/>
    </edge>
    <edge id=":C0_9" function="internal">
        <lane id=":C0_9_0" index="0" speed="3.65" length="2.34" shape="198.10,0.00,3.65 198.50,-0.80,3.65 199.70,-1.60,3.65"/>
    </edge>
    <edge id=":C0_6" function="internal">
        <lane id=":C0_6_0" index="0" speed="13.89" length="14.40" shape="185.30,-1.60,3.65 199.70,-1.60,3.65"/>
    </edge>
    <edge id=":C0_7" function="internal">
        <lane id=":C0_7_0" index="0" speed="8.05" length="5.90" shape="185.30,-1.60,3.65 189.12,-1.05,3.65 190.87,-0.00,3.65"/>
    </edge>
    <edge id=":C0_8" function="internal">
        <lane id=":C0_8_0" index="0" speed="3.65" length="2.34" shape="185.30,-1.60,3.65 186.50,-0.80,3.65 186.90,0.00,3.65"/>
    </edge>
    <edge id=":C0_10" function="internal">
        <lane id=":C0_10_0" index="0" speed="8.05" length="8.31" shape="190.87,-0.00,3.65 191.88,0.61,3.65 193.55,3.36,3.65 194.15,7.22,3.65"/>
    </edge>
    <edge id=":C0_11" function="internal">
        <lane id=":C0_11_0" index="0" speed="3.65" length="2.34" shape="186.90,0.00,3.65 186.50,0.80,3.65 185.30,1.60,3.65"/>
    </edge>
    <edge id=":C1_0" function="internal">
        <lane id=":C1_0_0" index="0" speed="13.89" length="14.40" shape="200.98,101.60,30.94 186.58,101.60,30.94"/>
    </edge>
    <edge id=":C1_1" function="internal">
        <lane id=":C1_1_0" index="0" speed="8.05" length="5.90" shape="200.98,101.60,30.94 197.15,101.05,30.94 195.41,100.00,30.94"/>
    </edge>
    <edge id=":C1_2" function="internal">
        <lane id=":C1_2_0" index="0" speed="3.65" length="2.34" shape="200.98,101.60,30.94 199.78,100.80,30.94 199.38,100.00,30.94"/>
    </edge>
    <edge id=":C1_9" function="internal">
        <lane id=":C1_9_0" index="0" speed="8.05" length="8.31" shape="195.41,100.00,30.94 194.40,99.39,30.94 192.73,96.64,30.94 192.13,92.78,30.94"/>
    </edge>
    <edge id=":C1_10" function="internal">
        <lane id=":C1_10_0" index="0" speed="3.65" length="2.34" shape="199.38,100.00,30.94 199.78,99.20,30.94 200.98,98.40,30.94"/>
    </edge>
    <edge id=":C1_3" function="internal">
        <lane id=":C1_3_0" index="0" speed="6.56" length="9.10" shape="195.33,92.73,30.94 195.71,95.21,30.94 196.78,96.98,30.94 198.54,98.05,30.94 200.98,98.40,30.94"/>
    </edge>
    <edge id=":C1_4" function="internal">
        <lane id=":C1_4_0" index="0" speed="7.98" length="14.24" shape="195.33,92.73,30.94 194.83,96.61,30.94 193.20,99.38,30.94 190.45,101.05,30.94 186.58,101.60,30.94"/>
    </edge>
    <edge id=":C1_5" function="internal">
        <lane id=":C1_5_0" index="0" speed="3.65" length="4.67" shape="195.33,92.73,30.94 194.54,93.95,30.94 193.75,94.36,30.94 192.94,93.97,30.94 192.13,92.78,30.94"/>
    </edge>
    <edge id=":C1_6" function="internal">
        <lane id=":C1_6_0" index="0" speed="6.48" length="9.03" shape="186.58,98.40,30.94 189.04,98.05,30.94 190.78,96.99,30.94 191.81,95.24,30.94 192.13,92.78,30.94"/>
    </edge>
    <edge id=":C1_7" function="internal">
        <lane id=":C1_7_0" index="0" speed="13.89" length="14.40" shape="186.58,98.40,30.94 200.98,98.40,30.94"/>
    </edge>
    <edge id=":C1_8" function="internal">
        <lane id=":C1_8_0" index="0" speed="3.65" length="2.34" shape="186.58,98.40,30.94 187.78,99.20,30.94 188.18,100.00,30.94"/>
    </edge>
    <edge id=":C1_11" function="internal">
        <lane id=":C1_11_0" index="0" speed="3.65" length="2.34" shape="188.18,100.00,30.94 187.78,100.80,30.94 186.58,101.60,30.94"/>
    </edge>
    <edge id=":D0_0" function="internal">
        <lane id=":D0_0_0" index="0" speed="6.90" length="9.53" shape="307.97,1.60,41.89 305.55,1.98,41.89 303.74,3.11,41.89 302.54,4.99,41.89 301.95,7.63,41.89"/>
    </edge>
    <edge id=":D0_1" function="internal">
        <lane id=":D0_1_0" index="0" speed="13.89" length="14.43" shape="307.97,1.60,41.89 293.55,1.60,41.89"/>
    </edge>
    <edge id=":D0_2" function="internal">
        <lane id=":D0_2_0" index="0" speed="3.65" length="2.34" shape="307.97,1.60,41.89 306.77,0.80,41.89 306.37,0.00,41.89"/>
    </edge>
    <edge id=":D0_9" function="internal">
        <lane id=":D0_9_0" index="0" speed="3.65" length="2.34" shape="306.37,0.00,41.89 306.77,-0.80,41.89 307.97,-1.60,41.89"/>
    </edge>
    <edge id=":D0_3" function="internal">
        <lane id=":D0_3_0" index="0" speed="13.89" length="14.43" shape="293.55,-1.60,41.89 307.97,-1.60,41.89"/>
    </edge>
    <edge id=":D0_4" function="internal">
        <lane id=":D0_4_0" index="0" speed="7.84" length="5.96" shape="293.55,-1.60,41.89 297.55,-1.02,41.89 299.17,0.00,41.89"/>
    </edge>
    <edge id=":D0_5" function="internal">
        <lane id=":D0_5_0" index="0" speed="3.65" length="2.34" shape="293.55,-1.60,41.89 294.75,-0.80,41.89 295.15,0.00,41.89"/>
    </edge>
    <edge id=":D0_10" function="internal">
        <lane id=":D0_10_0" index="0" speed="7.84" length="8.61" shape="299.17,0.00,41.89 300.28,0.71,41.89 301.75,3.59,41.89 301.95,7.63,41.89"/>
    </edge>
    <edge id=":D0_11" function="internal">
        <lane id=":D0_11_0" index="0" speed="3.65" length="2.34" shape="295.15,0.00,41.89 294.75,0.80,41.89 293.55,1.60,41.89"/>
    </edge>
    <edge id=":D0_6" function="internal">
        <lane id=":D0_6_0" index="0" speed="6.31" length="9.04" shape="298.76,7.33,41.89 298.64,4.82,41.89 297.73,3.03,41.89 296.03,1.96,41.89 293.55,1.60,41.89"/>
    </edge>
    <edge id=":D0_7" function="internal">
        <lane id=":D0_7_0" index="0" speed="8.33" length="14.34" shape="298.76,7.33,41.89 299.65,3.42,41.89 301.49,0.63,41.89 304.26,-1.04,41.89 307.97,-1.60,41.89"/>
    </edge>
    <edge id=":D0_8" function="internal">
        <lane id=":D0_8_0" index="0" speed="3.65" length="4.67" shape="298.76,7.33,41.89 299.67,6.21,41.89 300.51,5.89,41.89 301.26,6.36,41.89 301.95,7.63,41.89"/>
    </edge>
    <edge id=":D1_0" function="internal">
        <lane id=":D1_0_0" index="0" speed="13.89" length="14.43" shape="299.12,101.60,-5.81 284.69,101.60,-5.81"/>
    </edge>
    <edge id=":D1_1" function="internal">
        <lane id=":D1_1_0" index="0" speed="7.84" length="5.96" shape="299.12,101.60,-5.81 295.11,101.02,-5.81 293.50,100.00,-5.81"/>
    </edge>
    <edge id=":D1_2" function="internal">
        <lane id=":D1_2_0" index="0" speed="3.65" length="2.34" shape="299.12,101.60,-5.81 297.92,100.80,-5.81 297.52,100.00,-5.81"/>
    </edge>
    <edge id=":D1_9" function="internal">
        <lane id=":D1_9_0" index="0" speed="7.84" length="8.61" shape="293.50,100.00,-5.81 292.38,99.29,-5.81 290.91,96.41,-5.81 290.71,92.37,-5.81"/>
    </edge>
    <edge id=":D1_10" function="internal">
        <lane id=":D1_10_0" index="0" speed="3.65" length="2.34" shape="297.52,100.00,-5.81 297.92,99.20,-5.81 299.12,98.40,-5.81"/>
    </edge>
    <edge id=":D1_3" function="internal">
        <lane id=":D1_3_0" index="0" speed="6.31" length="9.04" shape="293.90,92.67,-5.81 294.02,95.18,-5.81 294.93,96.97,-5.81 296.63,98.04,-5.81 299.12,98.40,-5.81"/>
    </edge>
    <edge id=":D1_4" function="internal">
        <lane id=":D1_4_0" index="0" speed="8.33" length="14.34" shape="293.90,92.67,-5.81 293.01,96.58,-5.81 291.17,99.37,-5.81 288.40,101.04,-5.81 284.69,101.60,-5.81"/>
    </edge>
    <edge id=":D1_5" function="internal">
        <lane id=":D1_5_0" index="0" speed="3.65" length="4.67" shape="293.90,92.67,-5.81 292.99,93.79,-5.81 292.16,94.11,-5.81 291.40,93.64,-5.81 290.71,92.37,-5.81"/>
    </edge>
    <edge id=":D1_6" function="internal">
        <lane id=":D1_6_0" index="0" speed="6.90" length="9.53" shape="284.69,98.40,-5.81 287.11,98.02,-5.81 288.92,96.89,-5.81 290.12,95.01,-5.81 290.71,92.37,-5.81"/>
    </edge>
    <edge id=":D1_7" function="internal">
        <lane id=":D1_7_0" index="0" speed="13.89" length="14.43" shape="284.69,98.40,-5.81 299.12,98.40,-5.81"/>
    </edge>
    <edge id=":D1_8" function="internal">
        <lane id=":D1_8_0" index="0" speed="3.65" length="2.34" shape="284.69,98.40,-5.81 285.89,99.20,-5.81 286.29,100.00,-5.81"/>
    </edge>
    <edge id=":D1_11" function="internal">
        <lane id=":D1_11_0" index="0" speed="3.65" length="2.34" shape="286.29,100.00,-5.81 285.89,100.80,-5.81 284.69,101.60,-5.81"/>
    </edge>
    <edge id=":E0_0" function="internal">
        <lane id=":E0_0_0" index="0" speed="6.61" length="9.17" shape="403.91,1.60,-19.95 401.46,1.96,-19.95 399.70,3.03,-19.95 398.61,4.82,-19.95 398.19,7.33,-19.95"/>
    </edge>
    <edge id=":E0_1" function="internal">
        <lane id=":E0_1_0" index="0" speed="13.89" length="14.40" shape="403.91,1.60,-19.95 389.50,1.60,-19.95"/>
    </edge>
    <edge id=":E0_2" function="internal">
        <lane id=":E0_2_0" index="0" speed="3.65" length="2.34" shape="403.91,1.60,-19.95 402.71,0.80,-19.95 402.31,0.00,-19.95"/>
    </edge>
    <edge id=":E0_9" function="internal">
        <lane id=":E0_9_0" index="0" speed="3.65" length="2.34" shape="402.31,0.00,-19.95 402.71,-0.80,-19.95 403.91,-1.60,-19.95"/>
    </edge>
    <edge id=":E0_3" function="internal">
        <lane id=":E0_3_0" index="0" speed="13.89" length="14.40" shape="389.50,-1.60,-19.95 403.91,-1.60,-19.95"/>
    </edge>
    <edge id=":E0_4" function="internal">
        <lane id=":E0_4_0" index="0" speed="7.95" length="5.93" shape="389.50,-1.60,-19.95 393.40,-1.04,-19.95 395.10,-0.00,-19.95"/>
    </edge>
    <edge id=":E0_5" function="internal">
        <lane id=":E0_5_0" index="0" speed="3.65" length="2.34" shape="389.50,-1.60,-19.95 390.70,-0.80,-19.95 391.10,0.00,-19.95"/>
    </edge>
    <edge id=":E0_10" function="internal">
        <lane id=":E0_10_0" index="0" speed="7.95" length="8.36" shape="395.10,-0.00,-19.95 396.14,0.63,-19.95 397.74,3.42,-19.95 398.19,7.33,-19.95"/>
    </edge>
    <edge id=":E0_11" function="internal">
        <lane id=":E0_11_0" index="0" speed="3.65" length="2.34" shape="391.10,0.00,-19.95 390.70,0.80,-19.95 389.50,1.60,-19.95"/>
    </edge>
    <edge id=":E0_6" function="internal">
        <lane id=":E0_6_0" index="0" speed="6.45" length="9.03" shape="394.99,7.24,-19.95 394.71,4.77,-19.95 393.70,3.01,-19.95 391.96,1.95,-19.95 389.50,1.60,-19.95"/>
    </edge>
    <edge id=":E0_7" function="internal">
        <lane id=":E0_7_0" index="0" speed="8.09" length="14.23" shape="394.99,7.24,-19.95 395.64,3.37,-19.95 397.34,0.61,-19.95 400.10,-1.05,-19.95 403.91,-1.60,-19.95"/>
    </edge>
    <edge id=":E0_8" function="internal">
        <lane id=":E0_8_0" index="0" speed="3.65" length="4.67" shape="394.99,7.24,-19.95 395.83,6.06,-19.95 396.64,5.69,-19.95 397.43,6.11,-19.95 398.19,7.33,-19.95"/>
    </edge>
    <edge id=":E1_0" function="internal">
        <lane id=":E1_0_0" index="0" speed="13.89" length="14.40" shape="401.35,101.60,15.34 386.95,101.60,15.34"/>
    </edge>
    <edge id=":E1_1" function="internal">
        <lane id=":E1_1_0" index="0" speed="7.95" length="5.93" shape="401.35,101.60,15.34 397.46,101.04,15.34 395.75,100.00,15.34"/>
    </edge>
    <edge id=":E1_2" function="internal">
        <lane id=":E1_2_0" index="0" speed="3.65" length="2.34" shape="401.35,101.60,15.34 400.15,100.80,15.34 399.75,100.00,15.34"/>
    </edge>
    <edge id=":E1_9" function="internal">
        <lane id=":E1_9_0" index="0" speed="7.95" length="8.36" shape="395.75,100.00,15.34 394.71,99.37,15.34 393.11,96.58,15.34 392.66,92.67,15.34"/>
    </edge>
    <edge id=":E1_10" function="internal">
        <lane id=":E1_10_0" index="0" speed="3.65" length="2.34" shape="399.75,100.00,15.34 400.15,99.20,15.34 401.35,98.40,15.34"/>
    </edge>
    <edge id=":E1_3" function="internal">
        <lane id=":E1_3_0" index="0" speed="6.45" length="9.03" shape="395.86,92.76,15.34 396.15,95.23,15.34 397.16,96.99,15.34 398.89,98.05,15.34 401.35,98.40,15.34"/>
    </edge>
    <edge id=":E1_4" function="internal">
        <lane id=":E1_4_0" index="0" speed="8.09" length="14.23" shape="395.86,92.76,15.34 395.21,96.63,15.34 393.51,99.39,15.34 390.76,101.05,15.34 386.95,101.60,15.34"/>
    </edge>
    <edge id=":E1_5" function="internal">
        <lane id=":E1_5_0" index="0" speed="3.65" length="4.67" shape="395.86,92.76,15.34 395.03,93.94,15.34 394.22,94.31,15.34 393.43,93.89,15.34 392.66,92.67,15.34"/>
    </edge>
    <edge id=":E1_6" function="internal">
        <lane id=":E1_6_0" index="0" speed="6.61" length="9.17" shape="386.95,98.40,15.34 389.39,98.04,15.34 391.15,96.97,15.34 392.25,95.18,15.34 392.66,92.67,15.34"/>
    </edge>
    <edge id=":E1_7" function="internal">
        <lane id=":E1_7_0" index="0" speed="13.89" length="14.40" shape="386.95,98.40,15.34 401.35,98.40,15.34"/>
    </edge>
    <edge id=":E1_8" function="internal">
        <lane id=":E1_8_0" index="0" speed="3.65" length="2.34" shape="386.95,98.40,15.34 388.15,99.20,15.34 388.55,100.00,15.34"/>
    </edge>
    <edge id=":E1_11" function="internal">
        <lane id=":E1_11_0" index="0" speed="3.65" length="2.34" shape="388.55,100.00,15.34 388.15,100.80,15.34 386.95,101.60,15.34"/>
    </edge>
    <edge id=":F0_0" function="internal">
        <lane id=":F0_0_0" index="0" speed="6.74" length="9.33" shape="495.96,1.60,16.94 493.53,1.97,16.94 491.74,3.07,16.94 490.60,4.90,16.94 490.11,7.47,16.94"/>
    </edge>
    <edge id=":F0_1" function="internal">
        <lane id=":F0_1_0" index="0" speed="13.89" length="14.41" shape="495.96,1.60,16.94 481.55,1.60,16.94"/>
    </edge>
    <edge id=":F0_2" function="internal">
        <lane id=":F0_2_0" index="0" speed="3.65" length="2.34" shape="495.96,1.60,16.94 494.76,0.80,16.94 494.36,0.00,16.94"/>
    </edge>
    <edge id=":F0_9" function="internal">
        <lane id=":F0_9_0" index="0" speed="3.65" length="2.34" shape="494.36,0.00,16.94 494.76,-0.80,16.94 495.96,-1.60,16.94"/>
    </edge>
    <edge id=":F0_3" function="internal">
        <lane id=":F0_3_0" index="0" speed="13.89" length="14.41" shape="481.55,-1.60,16.94 495.96,-1.60,16.94"/>
    </edge>
    <edge id=":F0_4" function="internal">
        <lane id=":F0_4_0" index="0" speed="7.90" length="5.94" shape="481.55,-1.60,16.94 485.49,-1.03,16.94 487.15,-0.00,16.94"/>
    </edge>
    <edge id=":F0_5" function="internal">
        <lane id=":F0_5_0" index="0" speed="3.65" length="2.34" shape="481.55,-1.60,16.94 482.75,-0.80,16.94 483.15,0.00,16.94"/>
    </edge>
    <edge id=":F0_10" function="internal">
        <lane id=":F0_10_0" index="0" speed="7.90" length="8.47" shape="487.15,-0.00,16.94 488.23,0.67,16.94 489.77,3.50,16.94 490.11,7.47,16.94"/>
    </edge>
    <edge id=":F0_11" function="internal">
        <lane id=":F0_11_0" index="0" speed="3.65" length="2.34" shape="483.15,0.00,16.94 482.75,0.80,16.94 481.55,1.60,16.94"/>
    </edge>
    <edge id=":F0_6" function="internal">
        <lane id=":F0_6_0" index="0" speed="6.39" length="9.04" shape="486.92,7.28,16.94 486.70,4.80,16.94 485.74,3.02,16.94 484.02,1.96,16.94 481.55,1.60,16.94"/>
    </edge>
    <edge id=":F0_7" function="internal">
        <lane id=":F0_7_0" index="0" speed="8.19" length="14.28" shape="486.92,7.28,16.94 487.67,3.40,16.94 489.43,0.62,16.94 492.19,-1.04,16.94 495.96,-1.60,16.94"/>
    </edge>
    <edge id=":F0_8" function="internal">
        <lane id=":F0_8_0" index="0" speed="3.65" length="4.67" shape="486.92,7.28,16.94 487.78,6.13,16.94 488.61,5.78,16.94 489.38,6.22,16.94 490.11,7.47,16.94"/>
    </edge>
    <edge id=":F1_0" function="internal">
        <lane id=":F1_0_0" index="0" speed="13.89" length="14.41" shape="490.61,101.60,-27.17 476.19,101.60,-27.17"/>
    </edge>
    <edge id=":F1_1" function="internal">
        <lane id=":F1_1_0" index="0" speed="7.90" length="5.94" shape="490.61,101.60,-27.17 486.66,101.03,-27.17 485.00,100.00,-27.17"/>
    </edge>
    <edge id=":F1_2" function="internal">
        <lane id=":F1_2_0" index="0" speed="3.65" length="2.34" shape="490.61,101.60,-27.17 489.41,100.80,-27.17 489.01,100.00,-27.17"/>
    </edge>
    <edge id=":F1_9" function="internal">
        <lane id=":F1_9_0" index="0" speed="7.90" length="8.47" shape="485.00,100.00,-27.17 483.92,99.33,-27.17 482.38,96.50,-27.17 482.04,92.53,-27.17"/>
    </edge>
    <edge id=":F1_10" function="internal">
        <lane id=":F1_10_0" index="0" speed="3.65" length="2.34" shape="489.01,100.00,-27.17 489.41,99.20,-27.17 490.61,98.40,-27.17"/>
    </edge>
    <edge id=":F1_3" function="internal">
        <lane id=":F1_3_0" index="0" speed="6.39" length="9.04" shape="485.24,92.72,-27.17 485.45,95.20,-27.17 486.42,96.98,-27.17 488.13,98.04,-27.17 490.61,98.40,-27.17"/>
    </edge>
    <edge id=":F1_4" function="internal">
        <lane id=":F1_4_0" index="0" speed="8.19" length="14.28" shape="485.24,92.72,-27.17 484.48,96.60,-27.17 482.72,99.38,-27.17 479.96,101.04,-27.17 476.19,101.60,-27.17"/>
    </edge>
    <edge id=":F1_5" function="internal">
        <lane id=":F1_5_0" index="0" speed="3.65" length="4.67" shape="485.24,92.72,-27.17 484.37,93.87,-27.17 483.55,94.22,-27.17 482.77,93.78,-27.17 482.04,92.53,-27.17"/>
    </edge>
    <edge id=":F1_6" function="internal">
        <lane id=":F1_6_0" index="0" speed="6.74" length="9.33" shape="476.19,98.40,-27.17 478.63,98.03,-27.17 480.41,96.93,-27.17 481.55,95.10,-27.17 482.04,92.53,-27.17"/>
    </edge>
    <edge id=":F1_7" function="internal">
        <lane id=":F1_7_0" index="0" speed="13.89" length="14.41" shape="476.19,98.40,-27.17 490.61,98.40,-27.17"/>
    </edge>
    <edge id=":F1_8" function="internal">
        <lane id=":F1_8_0" index="0" speed="3.65" length="2.34" shape="476.19,98.40,-27.17 477.39,99.20,-27.17 477.79,100.00,-27.17"/>
    </edge>
    <edge id=":F1_11" function="internal">
        <lane id=":F1_11_0" index="0" speed="3.65" length="2.34" shape="477.79,100.00,-27.17 477.39,100.80,-27.17 476.19,101.60,-27.17"/>
    </edge>
    <edge id=":G0_0" function="internal">
        <lane id=":G0_0_0" index="0" speed="7.09" length="9.77" shape="607.30,1.60,38.60 604.88,1.99,38.60 603.04,3.16,38.60 601.76,5.10,38.60 601.04,7.82,38.60"/>
    </edge>
    <edge id=":G0_1" function="internal">
        <lane id=":G0_1_0" index="0" speed="13.89" length="14.46" shape="607.30,1.60,38.60 592.84,1.60,38.60"/>
    </edge>
    <edge id=":G0_2" function="internal">
        <lane id=":G0_2_0" index="0" speed="3.65" length="2.34" shape="607.30,1.60,38.60 606.10,0.80,38.60 605.70,0.00,38.60"/>
    </edge>
    <edge id=":G0_9" function="internal">
        <lane id=":G0_9_0" index="0" speed="3.65" length="2.34" shape="605.70,0.00,38.60 606.10,-0.80,38.60 607.30,-1.60,38.60"/>
    </edge>
    <edge id=":G0_3" function="internal">
        <lane id=":G0_3_0" index="0" speed="13.89" length="14.46" shape="592.84,-1.60,38.60 607.30,-1.60,38.60"/>
    </edge>
    <edge id=":G0_4" function="internal">
        <lane id=":G0_4_0" index="0" speed="7.77" length="5.98" shape="592.84,-1.60,38.60 596.92,-1.01,38.60 598.48,-0.00,38.60"/>
    </edge>
    <edge id=":G0_5" function="internal">
        <lane id=":G0_5_0" index="0" speed="3.65" length="2.34" shape="592.84,-1.60,38.60 594.04,-0.80,38.60 594.44,0.00,38.60"/>
    </edge>
    <edge id=":G0_10" function="internal">
        <lane id=":G0_10_0" index="0" speed="7.77" length="8.76" shape="598.48,-0.00,38.60 599.64,0.76,38.60 601.02,3.70,38.60 601.04,7.82,38.60"/>
    </edge>
    <edge id=":G0_11" function="internal">
        <lane id=":G0_11_0" index="0" speed="3.65" length="2.34" shape="594.44,0.00,38.60 594.04,0.80,38.60 592.84,1.60,38.60"/>
    </edge>
    <edge id=":G0_6" function="internal">
        <lane id=":G0_6_0" index="0" speed="6.23" length="9.05" shape="597.87,7.38,38.60 597.86,4.85,38.60 597.01,3.05,38.60 595.34,1.96,38.60 592.84,1.60,38.60"/>
    </edge>
    <edge id=":G0_7" function="internal">
        <lane id=":G0_7_0" index="0" speed="8.49" length="14.43" shape="597.87,7.38,38.60 598.93,3.45,38.60 600.85,0.65,38.60 603.64,-1.04,38.60 607.30,-1.60,38.60"/>
    </edge>
    <edge id=":G0_8" function="internal">
        <lane id=":G0_8_0" index="0" speed="3.65" length="4.67" shape="597.87,7.38,38.60 598.83,6.30,38.60 599.68,6.02,38.60 600.41,6.52,38.60 601.04,7.82,38.60"/>
    </edge>
    <edge id=":G1_0" function="internal">
        <lane id=":G1_0_0" index="0" speed="13.89" length="14.46" shape="594.32,101.60,11.41 579.86,101.60,11.41"/>
    </edge>
    <edge id=":G1_1" function="internal">
        <lane id=":G1_1_0" index="0" speed="7.77" length="5.98" shape="594.32,101.60,11.41 590.24,101.01,11.41 588.68,100.00,11.41"/>
    </edge>
    <edge id=":G1_2" function="internal">
        <lane id=":G1_2_0" index="0" speed="3.65" length="2.34" shape="594.32,101.60,11.41 593.12,100.80,11.41 592.72,100.00,11.41"/>
    </edge>
    <edge id=":G1_9" function="internal">
        <lane id=":G1_9_0" index="0" speed="7.77" length="8.76" shape="588.68,100.00,11.41 587.51,99.24,11.41 586.14,96.30,11.41 586.11,92.18,11.41"/>
    </edge>
    <edge id=":G1_10" function="internal">
        <lane id=":G1_10_0" index="0" speed="3.65" length="2.34" shape="592.72,100.00,11.41 593.12,99.20,11.41 594.32,98.40,11.41"/>
    </edge>
    <edge id=":G1_3" function="internal">
        <lane id=":G1_3_0" index="0" speed="6.23" length="9.05" shape="589.28,92.62,11.41 589.30,95.15,11.41 590.14,96.95,11.41 591.81,98.04,11.41 594.32,98.40,11.41"/>
    </edge>
    <edge id=":G1_4" function="internal">
        <lane id=":G1_4_0" index="0" speed="8.49" length="14.43" shape="589.28,92.62,11.41 588.23,96.55,11.41 586.30,99.35,11.41 583.51,101.04,11.41 579.86,101.60,11.41"/>
    </edge>
    <edge id=":G1_5" function="internal">
        <lane id=":G1_5_0" index="0" speed="3.65" length="4.67" shape="589.28,92.62,11.41 588.33,93.70,11.41 587.48,93.98,11.41 586.74,93.48,11.41 586.11,92.18,11.41"/>
    </edge>
    <edge id=":G1_6" function="internal">
        <lane id=":G1_6_0" index="0" speed="7.09" length="9.77" shape="579.86,98.40,11.41 582.27,98.01,11.41 584.12,96.84,11.41 585.40,94.90,11.41 586.11,92.18,11.41"/>
    </edge>
    <edge id=":G1_7" function="internal">
        <lane id=":G1_7_0" index="0" speed="13.89" length="14.46" shape="579.86,98.40,11.41 594.32,98.40,11.41"/>
    </edge>
    <edge id=":G1_8" function="internal">
        <lane id=":G1_8_0" index="0" speed="3.65" length="2.34" shape="579.86,98.40,11.41 581.06,99.20,11.41 581.46,100.00,11.41"/>
    </edge>