<?xml version="1.0" encoding="UTF-8"?>

<!-- generated on 07/29/20 13:31:17 by Eclipse SUMO netgenerate Version 1.5.0
<configuration xmlns:xsi="http://www.w3.org/2001/XMLSchema-instance" xsi:noNamespaceSchemaLocation="http://sumo.dlr.de/xsd/netgenerateConfiguration.xsd">

    <grid_network>
        <grid value="true"/>
        <grid.x-number value="301"/>
        <grid.y-number value="2"/>
    </grid_network>

    <output>
        <output-file value="super.net.xml"/>
    </output>

    <processing>
        <perturb-z value="25"/>
    </processing>

    <building_defaults>
        <default.speed value="100"/>
    </building_defaults>

    <random_number>
        <seed value="8355201"/>
    </random_number>

</configuration>
-->

<net version="1.3" junctionCornerDetail="5" limitTurnSpeed="5.50" xmlns:xsi="http://www.w3.org/2001/XMLSchema-instance" xsi:noNamespaceSchemaLocation="http://sumo.dlr.de/xsd/net_file.xsd">

    <location netOffset="0.00,0.00" convBoundary="0.00,0.00,30000.00,100.00" origBoundary="0.00,0.00,30000.00,100.00" projParameter="!"/>

    <edge id=":AA0_0" function="internal">
        <lane id=":AA0_0_0" index="0" speed="6.08" length="7.83" shape="-1.60,3.20,4.15 -1.30,1.10,3.82 -0.40,-0.40,3.55 1.10,-1.30,3.27 3.20,-1.60,2.94"/>
    </edge>
    <edge id=":AA0_1" function="internal">
        <lane id=":AA0_1_0" index="0" speed="3.90" length="2.88" shape="3.20,1.60,2.87 2.50,1.70,3.22 2.00,2.00,3.51 1.70,2.50,3.80 1.60,3.20,4.15"/>
    </edge>
    <edge id=":AA1_0" function="internal">
        <lane id=":AA1_0_0" index="0" speed="6.08" length="7.85" shape="3.20,101.60,10.33 1.10,101.30,10.68 -0.40,100.40,10.97 -1.30,98.90,11.27 -1.60,96.80,11.62"/>
    </edge>
    <edge id=":AA1_1" function="internal">
        <lane id=":AA1_1_0" index="0" speed="3.90" length="2.84" shape="1.60,96.80,11.62 1.70,97.50,11.30 2.00,98.00,11.03 2.50,98.30,10.76 3.20,98.40,10.44"/>
    </edge>
    <edge id=":AB0_0" function="internal">
        <lane id=":AB0_0_0" index="0" speed="6.51" length="9.03" shape="98.40,7.20,-25.89 98.05,4.75,-25.89 97.00,3.00,-25.89 95.25,1.95,-25.89 92.80,1.60,-25.89"/>
    </edge>
    <edge id=":AB0_1" function="internal">
        <lane id=":AB0_1_0" index="0" speed="8.00" length="14.19" shape="98.40,7.20,-25.89 98.95,3.35,-25.89 100.60,0.60,-25.89 103.35,-1.05,-25.89 107.20,-1.60,-25.89"/>
    </edge>
    <edge id=":AB0_2" function="internal">
        <lane id=":AB0_2_0" index="0" speed="3.65" length="4.67" shape="98.40,7.20,-25.89 99.20,6.00,-25.89 100.00,5.60,-25.89 100.80,6.00,-25.89 101.60,7.20,-25.89"/>
    </edge>
    <edge id=":AB0_3" function="internal">
        <lane id=":AB0_3_0" index="0" speed="6.51" length="9.03" shape="107.20,1.60,-25.89 104.75,1.95,-25.89 103.00,3.00,-25.89 101.95,4.75,-25.89 101.60,7.20,-25.89"/>
    </edge>
    <edge id=":AB0_4" function="internal">
        <lane id=":AB0_4_0" index="0" speed="100.00" length="14.40" shape="107.20,1.60,-25.89 92.80,1.60,-25.89"/>
    </edge>
    <edge id=":AB0_5" function="internal">
        <lane id=":AB0_5_0" index="0" speed="3.65" length="2.34" shape="107.20,1.60,-25.89 106.00,0.80,-25.89 105.60,0.00,-25.89"/>
    </edge>
    <edge id=":AB0_9" function="internal">
        <lane id=":AB0_9_0" index="0" speed="3.65" length="2.34" shape="105.60,0.00,-25.89 106.00,-0.80,-25.89 107.20,-1.60,-25.89"/>
    </edge>
    <edge id=":AB0_6" function="internal">
        <lane id=":AB0_6_0" index="0" speed="100.00" length="14.40" shape="92.80,-1.60,-25.89 107.20,-1.60,-25.89"/>
    </edge>
    <edge id=":AB0_7" function="internal">
        <lane id=":AB0_7_0" index="0" speed="8.00" length="5.93" shape="92.80,-1.60,-25.89 96.65,-1.05,-25.89 98.40,0.00,-25.89"/>
    </edge>
    <edge id=":AB0_8" function="internal">
        <lane id=":AB0_8_0" index="0" speed="3.65" length="2.34" shape="92.80,-1.60,-25.89 94.00,-0.80,-25.89 94.40,0.00,-25.89"/>
    </edge>
    <edge id=":AB0_10" function="internal">
        <lane id=":AB0_10_0" index="0" speed="8.00" length="8.26" shape="98.40,0.00,-25.89 99.40,0.60,-25.89 101.05,3.35,-25.89 101.60,7.20,-25.89"/>
    </edge>
    <edge id=":AB0_11" function="internal">
        <lane id=":AB0_11_0" index="0" speed="3.65" length="2.34" shape="94.40,0.00,-25.89 94.00,0.80,-25.89 92.80,1.60,-25.89"/>
    </edge>
    <edge id=":AB1_0" function="internal">
        <lane id=":AB1_0_0" index="0" speed="100.00" length="14.40" shape="107.20,101.60,-33.01 92.80,101.60,-33.01"/>
    </edge>
    <edge id=":AB1_1" function="internal">
        <lane id=":AB1_1_0" index="0" speed="8.00" length="5.93" shape="107.20,101.60,-33.01 103.35,101.05,-33.01 101.60,100.00,-33.01"/>
    </edge>
    <edge id=":AB1_2" function="internal">
        <lane id=":AB1_2_0" index="0" speed="3.65" length="2.34" shape="107.20,101.60,-33.01 106.00,100.80,-33.01 105.60,100.00,-33.01"/>
    </edge>
    <edge id=":AB1_9" function="internal">
        <lane id=":AB1_9_0" index="0" speed="8.00" length="8.26" shape="101.60,100.00,-33.01 100.60,99.40,-33.01 98.95,96.65,-33.01 98.40,92.80,-33.01"/>
    </edge>
    <edge id=":AB1_10" function="internal">
        <lane id=":AB1_10_0" index="0" speed="3.65" length="2.34" shape="105.60,100.00,-33.01 106.00,99.20,-33.01 107.20,98.40,-33.01"/>
    </edge>
    <edge id=":AB1_3" function="internal">
        <lane id=":AB1_3_0" index="0" speed="6.51" length="9.03" shape="101.60,92.80,-33.01 101.95,95.25,-33.01 103.00,97.00,-33.01 104.75,98.05,-33.01 107.20,98.40,-33.01"/>
    </edge>
    <edge id=":AB1_4" function="internal">
        <lane id=":AB1_4_0" index="0" speed="8.00" length="14.19" shape="101.60,92.80,-33.01 101.05,96.65,-33.01 99.40,99.40,-33.01 96.65,101.05,-33.01 92.80,101.60,-33.01"/>
    </edge>
    <edge id=":AB1_5" function="internal">
        <lane id=":AB1_5_0" index="0" speed="3.65" length="4.67" shape="101.60,92.80,-33.01 100.80,94.00,-33.01 100.00,94.40,-33.01 99.20,94.00,-33.01 98.40,92.80,-33.01"/>
    </edge>
    <edge id=":AB1_6" function="internal">
        <lane id=":AB1_6_0" index="0" speed="6.51" length="9.03" shape="92.80,98.40,-33.01 95.25,98.05,-33.01 97.00,97.00,-33.01 98.05,95.25,-33.01 98.40,92.80,-33.01"/>
    </edge>
    <edge id=":AB1_7" function="internal">
        <lane id=":AB1_7_0" index="0" speed="100.00" length="14.40" shape="92.80,98.40,-33.01 107.20,98.40,-33.01"/>
    </edge>
    <edge id=":AB1_8" function="internal">
        <lane id=":AB1_8_0" index="0" speed="3.65" length="2.34" shape="92.80,98.40,-33.01 94.00,99.20,-33.01 94.40,100.00,-33.01"/>
    </edge>
    <edge id=":AB1_11" function="internal">
        <lane id=":AB1_11_0" index="0" speed="3.65" length="2.34" shape="94.40,100.00,-33.01 94.00,100.80,-33.01 92.80,101.60,-33.01"/>
    </edge>
    <edge id=":AC0_0" function="internal">
        <lane id=":AC0_0_0" index="0" speed="6.51" length="9.03" shape="198.40,7.20,24.53 198.05,4.75,24.53 197.00,3.00,24.53 195.25,1.95,24.53 192.80,1.60,24.53"/>
    </edge>
    <edge id=":AC0_1" function="internal">
        <lane id=":AC0_1_0" index="0" speed="8.00" length="14.19" shape="198.40,7.20,24.53 198.95,3.35,24.53 200.60,0.60,24.53 203.35,-1.05,24.53 207.20,-1.60,24.53"/>
    </edge>
    <edge id=":AC0_2" function="internal">
        <lane id=":AC0_2_0" index="0" speed="3.65" length="4.67" shape="198.40,7.20,24.53 199.20,6.00,24.53 200.00,5.60,24.53 200.80,6.00,24.53 201.60,7.20,24.53"/>
    </edge>
    <edge id=":AC0_3" function="internal">
        <lane id=":AC0_3_0" index="0" speed="6.51" length="9.03" shape="207.20,1.60,24.53 204.75,1.95,24.53 203.00,3.00,24.53 201.95,4.75,24.53 201.60,7.20,24.53"/>
    </edge>
    <edge id=":AC0_4" function="internal">
        <lane id=":AC0_4_0" index="0" speed="100.00" length="14.40" shape="207.20,1.60,24.53 192.80,1.60,24.53"/>
    </edge>
    <edge id=":AC0_5" function="internal">
        <lane id=":AC0_5_0" index="0" speed="3.65" length="2.34" shape="207.20,1.60,24.53 206.00,0.80,24.53 205.60,0.00,24.53"/>
    </edge>
    <edge id=":AC0_9" function="internal">
        <lane id=":AC0_9_0" index="0" speed="3.65" length="2.34" shape="205.60,0.00,24.53 206.00,-0.80,24.53 207.20,-1.60,24.53"/>
    </edge>
    <edge id=":AC0_6" function="internal">
        <lane id=":AC0_6_0" index="0" speed="100.00" length="14.40" shape="192.80,-1.60,24.53 207.20,-1.60,24.53"/>
    </edge>
    <edge id=":AC0_7" function="internal">
        <lane id=":AC0_7_0" index="0" speed="8.00" length="5.93" shape="192.80,-1.60,24.53 196.65,-1.05,24.53 198.40,0.00,24.53"/>
    </edge>
    <edge id=":AC0_8" function="internal">
        <lane id=":AC0_8_0" index="0" speed="3.65" length="2.34" shape="192.80,-1.60,24.53 194.00,-0.80,24.53 194.40,0.00,24.53"/>
    </edge>
    <edge id=":AC0_10" function="internal">
        <lane id=":AC0_10_0" index="0" speed="8.00" length="8.26" shape="198.40,0.00,24.53 199.40,0.60,24.53 201.05,3.35,24.53 201.60,7.20,24.53"/>
    </edge>
    <edge id=":AC0_11" function="internal">
        <lane id=":AC0_11_0" index="0" speed="3.65" length="2.34" shape="194.40,0.00,24.53 194.00,0.80,24.53 192.80,1.60,24.53"/>
    </edge>
    <edge id=":AC1_0" function="internal">
        <lane id=":AC1_0_0" index="0" speed="100.00" length="14.40" shape="207.20,101.60,-3.88 192.80,101.60,-3.88"/>
    </edge>
    <edge id=":AC1_1" function="internal">
        <lane id=":AC1_1_0" index="0" speed="8.00" length="5.93" shape="207.20,101.60,-3.88 203.35,101.05,-3.88 201.60,100.00,-3.88"/>
    </edge>
    <edge id=":AC1_2" function="internal">
        <lane id=":AC1_2_0" index="0" speed="3.65" length="2.34" shape="207.20,101.60,-3.88 206.00,100.80,-3.88 205.60,100.00,-3.88"/>
    </edge>
    <edge id=":AC1_9" function="internal">
        <lane id=":AC1_9_0" index="0" speed="8.00" length="8.26" shape="201.60,100.00,-3.88 200.60,99.40,-3.88 198.95,96.65,-3.88 198.40,92.80,-3.88"/>
    </edge>
    <edge id=":AC1_10" function="internal">
        <lane id=":AC1_10_0" index="0" speed="3.65" length="2.34" shape="205.60,100.00,-3.88 206.00,99.20,-3.88 207.20,98.40,-3.88"/>
    </edge>
    <edge id=":AC1_3" function="internal">
        <lane id=":AC1_3_0" index="0" speed="6.51" length="9.03" shape="201.60,92.80,-3.88 201.95,95.25,-3.88 203.00,97.00,-3.88 204.75,98.05,-3.88 207.20,98.40,-3.88"/>
    </edge>
    <edge id=":AC1_4" function="internal">
        <lane id=":AC1_4_0" index="0" speed="8.00" length="14.19" shape="201.60,92.80,-3.88 201.05,96.65,-3.88 199.40,99.40,-3.88 196.65,101.05,-3.88 192.80,101.60,-3.88"/>
    </edge>
    <edge id=":AC1_5" function="internal">
        <lane id=":AC1_5_0" index="0" speed="3.65" length="4.67" shape="201.60,92.80,-3.88 200.80,94.00,-3.88 200.00,94.40,-3.88 199.20,94.00,-3.88 198.40,92.80,-3.88"/>
    </edge>
    <edge id=":AC1_6" function="internal">
        <lane id=":AC1_6_0" index="0" speed="6.51" length="9.03" shape="192.80,98.40,-3.88 195.25,98.05,-3.88 197.00,97.00,-3.88 198.05,95.25,-3.88 198.40,92.80,-3.88"/>
    </edge>
    <edge id=":AC1_7" function="internal">
        <lane id=":AC1_7_0" index="0" speed="100.00" length="14.40" shape="192.80,98.40,-3.88 207.20,98.40,-3.88"/>
    </edge>
    <edge id=":AC1_8" function="internal">
        <lane id=":AC1_8_0" index="0" speed="3.65" length="2.34" shape="192.80,98.40,-3.88 194.00,99.20,-3.88 194.40,100.00,-3.88"/>
    </edge>
    <edge id=":AC1_11" function="internal">
        <lane id=":AC1_11_0" index="0" speed="3.65" length="2.34" shape="194.40,100.00,-3.88 194.00,100.80,-3.88 192.80,101.60,-3.88"/>
    </edge>
    <edge id=":AD0_0" function="internal">
        <lane id=":AD0_0_0" index="0" speed="6.51" length="9.03" shape="298.40,7.20,5.89 298.05,4.75,5.89 297.00,3.00,5.89 295.25,1.95,5.89 292.80,1.60,5.89"/>
    </edge>
    <edge id=":AD0_1" function="internal">
        <lane id=":AD0_1_0" index="0" speed="8.00" length="14.19" shape="298.40,7.20,5.89 298.95,3.35,5.85 300.60,0.60,5.81 303.35,-1.05,5.77 307.20,-1.60,5.73"/>
    </edge>
    <edge id=":AD0_2" function="internal">
        <lane id=":AD0_2_0" index="0" speed="3.65" length="4.67" shape="298.40,7.20,5.89 299.20,6.00,5.89 300.00,5.60,5.89 300.80,6.00,5.89 301.60,7.20,5.89"/>
    </edge>
    <edge id=":AD0_3" function="internal">
        <lane id=":AD0_3_0" index="0" speed="6.51" length="9.03" shape="307.20,1.60,5.73 304.75,1.95,5.77 303.00,3.00,5.81 301.95,4.75,5.85 301.60,7.20,5.89"/>
    </edge>
    <edge id=":AD0_4" function="internal">
        <lane id=":AD0_4_0" index="0" speed="100.00" length="14.40" shape="307.20,1.60,5.73 292.80,1.60,5.89"/>
    </edge>
    <edge id=":AD0_5" function="internal">
        <lane id=":AD0_5_0" index="0" speed="3.65" length="2.34" shape="307.20,1.60,5.73 306.00,0.80,5.73 305.60,0.00,5.73"/>
    </edge>
    <edge id=":AD0_9" function="internal">
        <lane id=":AD0_9_0" index="0" speed="3.65" length="2.34" shape="305.60,0.00,5.73 306.00,-0.80,5.73 307.20,-1.60,5.73"/>
    </edge>
    <edge id=":AD0_6" function="internal">
        <lane id=":AD0_6_0" index="0" speed="100.00" length="14.40" shape="292.80,-1.60,5.89 307.20,-1.60,5.73"/>
    </edge>
    <edge id=":AD0_7" function="internal">
        <lane id=":AD0_7_0" index="0" speed="8.00" length="5.93" shape="292.80,-1.60,5.89 296.65,-1.05,5.89 298.40,-0.00,5.89"/>
    </edge>
    <edge id=":AD0_8" function="internal">
        <lane id=":AD0_8_0" index="0" speed="3.65" length="2.34" shape="292.80,-1.60,5.89 294.00,-0.80,5.89 294.40,0.00,5.89"/>
    </edge>
    <edge id=":AD0_10" function="internal">
        <lane id=":AD0_10_0" index="0" speed="8.00" length="8.26" shape="298.40,-0.00,5.89 299.40,0.60,5.89 301.05,3.35,5.89 301.60,7.20,5.89"/>
    </edge>
    <edge id=":AD0_11" function="internal">
        <lane id=":AD0_11_0" index="0" speed="3.65" length="2.34" shape="294.40,0.00,5.89 294.00,0.80,5.89 292.80,1.60,5.89"/>
    </edge>
    <edge id=":AD1_0" function="internal">
        <lane id=":AD1_0_0" index="0" speed="100.00" length="14.40" shape="307.20,101.60,-8.15 292.80,101.60,-8.15"/>
    </edge>
    <edge id=":AD1_1" function="internal">
        <lane id=":AD1_1_0" index="0" speed="8.00" length="5.93" shape="307.20,101.60,-8.15 303.35,101.05,-8.15 301.60,100.00,-8.15"/>
    </edge>
    <edge id=":AD1_2" function="internal">
        <lane id=":AD1_2_0" index="0" speed="3.65" length="2.34" shape="307.20,101.60,-8.15 306.00,100.80,-8.15 305.60,100.00,-8.15"/>
    </edge>
    <edge id=":AD1_9" function="internal">
        <lane id=":AD1_9_0" index="0" speed="8.00" length="8.26" shape="301.60,100.00,-8.15 300.60,99.40,-8.15 298.95,96.65,-8.15 298.40,92.80,-8.15"/>
    </edge>
    <edge id=":AD1_10" function="internal">
        <lane id=":AD1_10_0" index="0" speed="3.65" length="2.34" shape="305.60,100.00,-8.15 306.00,99.20,-8.15 307.20,98.40,-8.15"/>
    </edge>
    <edge id=":AD1_3" function="internal">
        <lane id=":AD1_3_0" index="0" speed="6.51" length="9.03" shape="301.60,92.80,-8.15 301.95,95.25,-8.15 303.00,97.00,-8.15 304.75,98.05,-8.15 307.20,98.40,-8.15"/>
    </edge>
    <edge id=":AD1_4" function="internal">
        <lane id=":AD1_4_0" index="0" speed="8.00" length="14.19" shape="301.60,92.80,-8.15 301.05,96.65,-8.15 299.40,99.40,-8.15 296.65,101.05,-8.15 292.80,101.60,-8.15"/>
    </edge>
    <edge id=":AD1_5" function="internal">
        <lane id=":AD1_5_0" index="0" speed="3.65" length="4.67" shape="301.60,92.80,-8.15 300.80,94.00,-8.15 300.00,94.40,-8.15 299.20,94.00,-8.15 298.40,92.80,-8.15"/>
    </edge>
    <edge id=":AD1_6" function="internal">
        <lane id=":AD1_6_0" index="0" speed="6.51" length="9.03" shape="292.80,98.40,-8.15 295.25,98.05,-8.15 297.00,97.00,-8.15 298.05,95.25,-8.15 298.40,92.80,-8.15"/>
    </edge>
    <edge id=":AD1_7" function="internal">
        <lane id=":AD1_7_0" index="0" speed="100.00" length="14.40" shape="292.80,98.40,-8.15 307.20,98.40,-8.15"/>
    </edge>
    <edge id=":AD1_8" function="internal">
        <lane id=":AD1_8_0" index="0" speed="3.65" length="2.34" shape="292.80,98.40,-8.15 294.00,99.20,-8.15 294.40,100.00,-8.15"/>
    </edge>
    <edge id=":AD1_11" function="internal">
        <lane id=":AD1_11_0" index="0" speed="3.65" length="2.34" shape="294.40,100.00,-8.15 294.00,100.80,-8.15 292.80,101.60,-8.15"/>
    </edge>
    <edge id=":AE0_0" function="internal">
        <lane id=":AE0_0_0" index="0" speed="6.51" length="9.03" shape="398.40,7.20,3.70 398.05,4.75,3.75 397.00,3.00,3.78 395.25,1.95,3.82 392.80,1.60,3.86"/>
    </edge>
    <edge id=":AE0_1" function="internal">
        <lane id=":AE0_1_0" index="0" speed="8.00" length="14.19" shape="398.40,7.20,3.70 398.95,3.35,3.70 400.60,0.60,3.70 403.35,-1.05,3.70 407.20,-1.60,3.70"/>
    </edge>
    <edge id=":AE0_2" function="internal">
        <lane id=":AE0_2_0" index="0" speed="3.65" length="4.67" shape="398.40,7.20,3.70 399.20,6.00,3.70 400.00,5.60,3.70 400.80,6.00,3.70 401.60,7.20,3.70"/>
    </edge>
    <edge id=":AE0_3" function="internal">
        <lane id=":AE0_3_0" index="0" speed="6.51" length="9.03" shape="407.20,1.60,3.70 404.75,1.95,3.70 403.00,3.00,3.70 401.95,4.75,3.70 401.60,7.20,3.70"/>
    </edge>
    <edge id=":AE0_4" function="internal">
        <lane id=":AE0_4_0" index="0" speed="100.00" length="14.40" shape="407.20,1.60,3.70 392.80,1.60,3.86"/>
    </edge>
    <edge id=":AE0_5" function="internal">
        <lane id=":AE0_5_0" index="0" speed="3.65" length="2.34" shape="407.20,1.60,3.70 406.00,0.80,3.70 405.60,0.00,3.70"/>
    </edge>
    <edge id=":AE0_9" function="internal">
        <lane id=":AE0_9_0" index="0" speed="3.65" length="2.34" shape="405.60,0.00,3.70 406.00,-0.80,3.70 407.20,-1.60,3.70"/>
    </edge>
    <edge id=":AE0_6" function="internal">
        <lane id=":AE0_6_0" index="0" speed="100.00" length="14.40" shape="392.80,-1.60,3.86 407.20,-1.60,3.70"/>
    </edge>
    <edge id=":AE0_7" function="internal">
        <lane id=":AE0_7_0" index="0" speed="8.00" length="5.93" shape="392.80,-1.60,3.86 396.65,-1.05,3.82 398.40,-0.00,3.79"/>
    </edge>
    <edge id=":AE0_8" function="internal">
        <lane id=":AE0_8_0" index="0" speed="3.65" length="2.34" shape="392.80,-1.60,3.86 394.00,-0.80,3.86 394.40,0.00,3.86"/>
    </edge>
    <edge id=":AE0_10" function="internal">
        <lane id=":AE0_10_0" index="0" speed="8.00" length="8.26" shape="398.40,-0.00,3.79 399.40,0.60,3.78 401.05,3.35,3.75 401.60,7.20,3.70"/>
    </edge>
    <edge id=":AE0_11" function="internal">
        <lane id=":AE0_11_0" index="0" speed="3.65" length="2.34" shape="394.40,0.00,3.86 394.00,0.80,3.86 392.80,1.60,3.86"/>
    </edge>
    <edge id=":AE1_0" function="internal">
        <lane id=":AE1_0_0" index="0" speed="100.00" length="14.40" shape="407.20,101.60,-13.44 392.80,101.60,-13.25"/>
    </edge>
    <edge id=":AE1_1" function="internal">
        <lane id=":AE1_1_0" index="0" speed="8.00" length="5.93" shape="407.20,101.60,-13.44 403.35,101.05,-13.44 401.60,100.00,-13.44"/>
    </edge>
    <edge id=":AE1_2" function="internal">
        <lane id=":AE1_2_0" index="0" speed="3.65" length="2.34" shape="407.20,101.60,-13.44 406.00,100.80,-13.44 405.60,100.00,-13.44"/>
    </edge>
    <edge id=":AE1_9" function="internal">
        <lane id=":AE1_9_0" index="0" speed="8.00" length="8.26" shape="401.60,100.00,-13.44 400.60,99.40,-13.44 398.95,96.65,-13.44 398.40,92.80,-13.44"/>
    </edge>
    <edge id=":AE1_10" function="internal">
        <lane id=":AE1_10_0" index="0" speed="3.65" length="2.34" shape="405.60,100.00,-13.44 406.00,99.20,-13.44 407.20,98.40,-13.44"/>
    </edge>
    <edge id=":AE1_3" function="internal">
        <lane id=":AE1_3_0" index="0" speed="6.51" length="9.03" shape="401.60,92.80,-13.44 401.95,95.25,-13.44 403.00,97.00,-13.44 404.75,98.05,-13.44 407.20,98.40,-13.44"/>
    </edge>
    <edge id=":AE1_4" function="internal">
        <lane id=":AE1_4_0" index="0" speed="8.00" length="14.19" shape="401.60,92.80,-13.44 401.05,96.65,-13.39 399.40,99.40,-13.35 396.65,101.05,-13.31 392.80,101.60,-13.25"/>
    </edge>
    <edge id=":AE1_5" function="internal">
        <lane id=":AE1_5_0" index="0" speed="3.65" length="4.67" shape="401.60,92.80,-13.44 400.80,94.00,-13.44 400.00,94.40,-13.44 399.20,94.00,-13.44 398.40,92.80,-13.44"/>
    </edge>
    <edge id=":AE1_6" function="internal">
        <lane id=":AE1_6_0" index="0" speed="6.51" length="9.03" shape="392.80,98.40,-13.25 395.25,98.05,-13.31 397.00,97.00,-13.35 398.05,95.25,-13.39 398.40,92.80,-13.44"/>
    </edge>
    <edge id=":AE1_7" function="internal">
        <lane id=":AE1_7_0" index="0" speed="100.00" length="14.40" shape="392.80,98.40,-13.25 407.20,98.40,-13.44"/>
    </edge>
    <edge id=":AE1_8" function="internal">
        <lane id=":AE1_8_0" index="0" speed="3.65" length="2.34" shape="392.80,98.40,-13.25 394.00,99.20,-13.25 394.40,100.00,-13.25"/>
    </edge>
    <edge id=":AE1_11" function="internal">
        <lane id=":AE1_11_0" index="0" speed="3.65" length="2.34" shape="394.40,100.00,-13.25 394.00,100.80,-13.25 392.80,101.60,-13.25"/>
    </edge>
    <edge id=":AF0_0" function="internal">
        <lane id=":AF0_0_0" index="0" speed="6.51" length="9.03" shape="498.40,7.20,-33.05 498.05,4.75,-33.05 497.00,3.00,-33.05 495.25,1.95,-33.05 492.80,1.60,-33.05"/>
    </edge>
    <edge id=":AF0_1" function="internal">
        <lane id=":AF0_1_0" index="0" speed="8.00" length="14.19" shape="498.40,7.20,-33.05 498.95,3.35,-33.05 500.60,0.60,-33.05 503.35,-1.05,-33.05 507.20,-1.60,-33.05"/>
    </edge>
    <edge id=":AF0_2" function="internal">
        <lane id=":AF0_2_0" index="0" speed="3.65" length="4.67" shape="498.40,7.20,-33.05 499.20,6.00,-33.05 500.00,5.60,-33.05 500.80,6.00,-33.05 501.60,7.20,-33.05"/>
    </edge>
    <edge id=":AF0_3" function="internal">
        <lane id=":AF0_3_0" index="0" speed="6.51" length="9.03" shape="507.20,1.60,-33.05 504.75,1.95,-33.05 503.00,3.00,-33.05 501.95,4.75,-33.05 501.60,7.20,-33.05"/>
    </edge>
    <edge id=":AF0_4" function="internal">
        <lane id=":AF0_4_0" index="0" speed="100.00" length="14.40" shape="507.20,1.60,-33.05 492.80,1.60,-33.05"/>
    </edge>
    <edge id=":AF0_5" function="internal">
        <lane id=":AF0_5_0" index="0" speed="3.65" length="2.34" shape="507.20,1.60,-33.05 506.00,0.80,-33.05 505.60,0.00,-33.05"/>
    </edge>
    <edge id=":AF0_9" function="internal">
        <lane id=":AF0_9_0" index="0" speed="3.65" length="2.34" shape="505.60,0.00,-33.05 506.00,-0.80,-33.05 507.20,-1.60,-33.05"/>
    </edge>
    <edge id=":AF0_6" function="internal">
        <lane id=":AF0_6_0" index="0" speed="100.00" length="14.40" shape="492.80,-1.60,-33.05 507.20,-1.60,-33.05"/>
    </edge>
    <edge id=":AF0_7" function="internal">
        <lane id=":AF0_7_0" index="0" speed="8.00" length="5.93" shape="492.80,-1.60,-33.05 496.65,-1.05,-33.05 498.40,-0.00,-33.05"/>
    </edge>
    <edge id=":AF0_8" function="internal">
        <lane id=":AF0_8_0" index="0" speed="3.65" length="2.34" shape="492.80,-1.60,-33.05 494.00,-0.80,-33.05 494.40,0.00,-33.05"/>
    </edge>
    <edge id=":AF0_10" function="internal">
        <lane id=":AF0_10_0" index="0" speed="8.00" length="8.26" shape="498.40,-0.00,-33.05 499.40,0.60,-33.05 501.05,3.35,-33.05 501.60,7.20,-33.05"/>
    </edge>
    <edge id=":AF0_11" function="internal">
        <lane id=":AF0_11_0" index="0" speed="3.65" length="2.34" shape="494.40,0.00,-33.05 494.00,0.80,-33.05 492.80,1.60,-33.05"/>
    </edge>
    <edge id=":AF1_0" function="internal">
        <lane id=":AF1_0_0" index="0" speed="100.00" length="14.40" shape="507.20,101.60,32.50 492.80,101.60,32.50"/>
    </edge>
    <edge id=":AF1_1" function="internal">
        <lane id=":AF1_1_0" index="0" speed="8.00" length="5.93" shape="507.20,101.60,32.50 503.35,101.05,32.50 501.60,100.00,32.50"/>
    </edge>
    <edge id=":AF1_2" function="internal">
        <lane id=":AF1_2_0" index="0" speed="3.65" length="2.34" shape="507.20,101.60,32.50 506.00,100.80,32.50 505.60,100.00,32.50"/>
    </edge>
    <edge id=":AF1_9" function="internal">
        <lane id=":AF1_9_0" index="0" speed="8.00" length="8.26" shape="501.60,100.00,32.50 500.60,99.40,32.50 498.95,96.65,32.50 498.40,92.80,32.50"/>
    </edge>
    <edge id=":AF1_10" function="internal">
        <lane id=":AF1_10_0" index="0" speed="3.65" length="2.34" shape="505.60,100.00,32.50 506.00,99.20,32.50 507.20,98.40,32.50"/>
    </edge>
    <edge id=":AF1_3" function="internal">
        <lane id=":AF1_3_0" index="0" speed="6.51" length="9.03" shape="501.60,92.80,32.50 501.95,95.25,32.50 503.00,97.00,32.50 504.75,98.05,32.50 507.20,98.40,32.50"/>
    </edge>
    <edge id=":AF1_4" function="internal">
        <lane id=":AF1_4_0" index="0" speed="8.00" length="14.19" shape="501.60,92.80,32.50 501.05,96.65,32.50 499.40,99.40,32.50 496.65,101.05,32.50 492.80,101.60,32.50"/>
    </edge>
    <edge id=":AF1_5" function="internal">
        <lane id=":AF1_5_0" index="0" speed="3.65" length="4.67" shape="501.60,92.80,32.50 500.80,94.00,32.50 500.00,94.40,32.50 499.20,94.00,32.50 498.40,92.80,32.50"/>
    </edge>
    <edge id=":AF1_6" function="internal">
        <lane id=":AF1_6_0" index="0" speed="6.51" length="9.03" shape="492.80,98.40,32.50 495.25,98.05,32.50 497.00,97.00,32.50 498.05,95.25,32.50 498.40,92.80,32.50"/>
    </edge>
    <edge id=":AF1_7" function="internal">
        <lane id=":AF1_7_0" index="0" speed="100.00" length="14.40" shape="492.80,98.40,32.50 507.20,98.40,32.50"/>
    </edge>
    <edge id=":AF1_8" function="internal">
        <lane id=":AF1_8_0" index="0" speed="3.65" length="2.34" shape="492.80,98.40,32.50 494.00,99.20,32.50 494.40,100.00,32.50"/>
    </edge>
    <edge id=":AF1_11" function="internal">
        <lane id=":AF1_11_0" index="0" speed="3.65" length="2.34" shape="494.40,100.00,32.50 494.00,100.80,32.50 492.80,101.60,32.50"/>
    </edge>
    <edge id=":AG0_0" function="internal">
        <lane id=":AG0_0_0" index="0" speed="6.51" length="9.03" shape="598.40,7.20,-12.69 598.05,4.75,-12.69 597.00,3.00,-12.69 595.25,1.95,-12.69 592.80,1.60,-12.69"/>
    </edge>
    <edge id=":AG0_1" function="internal">
        <lane id=":AG0_1_0" index="0" speed="8.00" length="14.19" shape="598.40,7.20,-12.69 598.95,3.35,-12.69 600.60,0.60,-12.69 603.35,-1.05,-12.69 607.20,-1.60,-12.69"/>
    </edge>
    <edge id=":AG0_2" function="internal">
        <lane id=":AG0_2_0" index="0" speed="3.65" length="4.67" shape="598.40,7.20,-12.69 599.20,6.00,-12.69 600.00,5.60,-12.69 600.80,6.00,-12.69 601.60,7.20,-12.69"/>
    </edge>
    <edge id=":AG0_3" function="internal">
        <lane id=":AG0_3_0" index="0" speed="6.51" length="9.03" shape="607.20,1.60,-12.69 604.75,1.95,-12.69 603.00,3.00,-12.69 601.95,4.75,-12.69 601.60,7.20,-12.69"/>
    </edge>
    <edge id=":AG0_4" function="internal">
        <lane id=":AG0_4_0" index="0" speed="100.00" length="14.40" shape="607.20,1.60,-12.69 592.80,1.60,-12.69"/>
    </edge>
    <edge id=":AG0_5" function="internal">
        <lane id=":AG0_5_0" index="0" speed="3.65" length="2.34" shape="607.20,1.60,-12.69 606.00,0.80,-12.69 605.60,0.00,-12.69"/>
    </edge>
    <edge id=":AG0_9" function="internal">
        <lane id=":AG0_9_0" index="0" speed="3.65" length="2.34" shape="605.60,0.00,-12.69 606.00,-0.80,-12.69 607.20,-1.60,-12.69"/>
    </edge>
    <edge id=":AG0_6" function="internal">
        <lane id=":AG0_6_0" index="0" speed="100.00" length="14.40" shape="592.80,-1.60,-12.69 607.20,-1.60,-12.69"/>
    </edge>
    <edge id=":AG0_7" function="internal">
        <lane id=":AG0_7_0" index="0" speed="8.00" length="5.93" shape="592.80,-1.60,-12.69 596.65,-1.05,-12.69 598.40,0.00,-12.69"/>
    </edge>
    <edge id=":AG0_8" function="internal">
        <lane id=":AG0_8_0" index="0" speed="3.65" length="2.34" shape="592.80,-1.60,-12.69 594.00,-0.80,-12.69 594.40,0.00,-12.69"/>
    </edge>
    <edge id=":AG0_10" function="internal">
        <lane id=":AG0_10_0" index="0" speed="8.00" length="8.26" shape="598.40,0.00,-12.69 599.40,0.60,-12.69 601.05,3.35,-12.69 601.60,7.20,-12.69"/>
    </edge>
    <edge id=":AG0_11" function="internal">
        <lane id=":AG0_11_0" index="0" speed="3.65" length="2.34" shape="594.40,0.00,-12.69 594.00,0.80,-12.69 592.80,1.60,-12.69"/>
    </edge>
    <edge id=":AG1_0" function="internal">
        <lane id=":AG1_0_0" index="0" speed="100.00" length="14.40" shape="607.20,101.60,-9.43 592.80,101.60,-9.43"/>
    </edge>
    <edge id=":AG1_1" function="internal">
        <lane id=":AG1_1_0" index="0" speed="8.00" length="5.93" shape="607.20,101.60,-9.43 603.35,101.05,-9.43 601.60,100.00,-9.43"/>
    </edge>
    <edge id=":AG1_2" function="internal">
        <lane id=":AG1_2_0" index="0" speed="3.65" length="2.34" shape="607.20,101.60,-9.43 606.00,100.80,-9.43 605.60,100.00,-9.43"/>
    </edge>
    <edge id=":AG1_9" function="internal">
        <lane id=":AG1_9_0" index="0" speed="8.00" length="8.26" shape="601.60,100.00,-9.43 600.60,99.40,-9.43 598.95,96.65,-9.43 598.40,92.80,-9.43"/>
    </edge>
    <edge id=":AG1_10" function="internal">
        <lane id=":AG1_10_0" index="0" speed="3.65" length="2.34" shape="605.60,100.00,-9.43 606.00,99.20,-9.43 607.20,98.40,-9.43"/>
    </edge>
    <edge id=":AG1_3" function="internal">
        <lane id=":AG1_3_0" index="0" speed="6.51" length="9.03" shape="601.60,92.80,-9.43 601.95,95.25,-9.43 603.00,97.00,-9.43 604.75,98.05,-9.43 607.20,98.40,-9.43"/>
    </edge>
    <edge id=":AG1_4" function="internal">
        <lane id=":AG1_4_0" index="0" speed="8.00" length="14.19" shape="601.60,92.80,-9.43 601.05,96.65,-9.43 599.40,99.40,-9.43 596.65,101.05,-9.43 592.80,101.60,-9.43"/>
    </edge>
    <edge id=":AG1_5" function="internal">
        <lane id=":AG1_5_0" index="0" speed="3.65" length="4.67" shape="601.60,92.80,-9.43 600.80,94.00,-9.43 600.00,94.40,-9.43 599.20,94.00,-9.43 598.40,92.80,-9.43"/>
    </edge>
    <edge id=":AG1_6" function="internal">