<?xml version="1.0" encoding="UTF-8"?>

<!-- generated on 07/20/20 23:00:49 by Eclipse SUMO netedit Version 1.5.0
<configuration xmlns:xsi="http://www.w3.org/2001/XMLSchema-instance" xsi:noNamespaceSchemaLocation="http://sumo.dlr.de/xsd/netconvertConfiguration.xsd">

    <input>
        <sumo-net-file value="C:\Users\Matheus\Desktop\MC906\eco-driver\line.net.xml"/>
    </input>

    <output>
        <output-file value="C:\Users\Matheus\Desktop\MC906\eco-driver\line.net.xml"/>
    </output>

    <processing>
        <geometry.min-radius.fix.railways value="false"/>
        <geometry.max-grade.fix value="false"/>
        <offset.disable-normalization value="true"/>
        <lefthand value="false"/>
    </processing>

    <junctions>
        <no-turnarounds value="true"/>
        <junctions.corner-detail value="5"/>
        <junctions.limit-turn-speed value="5.5"/>
        <rectangular-lane-cut value="false"/>
    </junctions>

    <pedestrian>
        <walkingareas value="false"/>
    </pedestrian>

    <report>
        <aggregate-warnings value="5"/>
    </report>

</configuration>
-->

<net version="1.3" junctionCornerDetail="5" limitTurnSpeed="5.50" xmlns:xsi="http://www.w3.org/2001/XMLSchema-instance" xsi:noNamespaceSchemaLocation="http://sumo.dlr.de/xsd/net_file.xsd">

    <location netOffset="0.00,0.00" convBoundary="-700.00,100.00,300.00,100.00" origBoundary="-10000000000.00,-10000000000.00,10000000000.00,10000000000.00" projParameter="!"/>

    <edge id="gneE22" from="gneJ16" to="gneJ15" priority="-1">
        <lane id="gneE22_0" index="0" speed="13.89" length="142.01" shape="-700.00,98.40 -600.00,98.40,100.83"/>
    </edge>
    
    <edge id=":gneJ0_0" function="internal">
        <lane id=":gneJ0_0_0" index="0" speed="13.89" length="0.10" shape="-200.00,98.40,49.40 -200.00,98.40,49.40"/>
    </edge>
    <edge id=":gneJ1_0" function="internal">
        <lane id=":gneJ1_0_0" index="0" speed="13.89" length="0.10" shape="-100.00,98.40,49.40 -100.00,98.40,49.40"/>
    </edge>
    <edge id=":gneJ10_0" function="internal">
        <lane id=":gneJ10_0_0" index="0" speed="13.89" length="0.10" shape="100.00,98.40,101.38 100.00,98.40,101.38"/>
    </edge>
    <edge id=":gneJ11_0" function="internal">
        <lane id=":gneJ11_0_0" index="0" speed="13.89" length="0.10" shape="200.00,98.40,50.69 200.00,98.40,50.69"/>
    </edge>
    <edge id=":gneJ12_0" function="internal">
        <lane id=":gneJ12_0_0" index="0" speed="13.89" length="0.10" shape="-500.00,98.40,50.51 -500.00,98.40,50.51"/>
    </edge>
    <edge id=":gneJ15_0" function="internal">
        <lane id=":gneJ15_0_0" index="0" speed="13.89" length="0.10" shape="-600.00,98.40,100.83 -600.00,98.40,100.83"/>
    </edge>
    <edge id=":gneJ2_0" function="internal">
        <lane id=":gneJ2_0_0" index="0" speed="13.89" length="0.10" shape="-300.00,98.40,-0.55 -300.00,98.40,-0.55"/>
    </edge>
    <edge id=":gneJ3_0" function="internal">
        <lane id=":gneJ3_0_0" index="0" speed="13.89" length="0.10" shape="-400.00,98.40,100.64 -400.00,98.40,100.64"/>
    </edge>
    <edge id=":gneJ9_0" function="internal">
        <lane id=":gneJ9_0_0" index="0" speed="13.89" length="0.10" shape="0.00,98.40,100.65 0.00,98.40,100.65"/>
    </edge>

    <edge id="gneE0" from="gneJ0" to="gneJ1" priority="-1">
        <lane id="gneE0_0" index="0" speed="13.89" length="100.00" shape="-200.00,98.40,49.40 -100.00,98.40,49.40"/>
    </edge>
    <edge id="gneE12" from="gneJ9" to="gneJ10" priority="-1">
        <lane id="gneE12_0" index="0" speed="13.89" length="100.00" shape="0.00,98.40,100.65 100.00,98.40,101.38"/>
    </edge>
    <edge id="gneE14" from="gneJ10" to="gneJ11" priority="-1">
        <lane id="gneE14_0" index="0" speed="13.89" length="112.11" shape="100.00,98.40,101.38 200.00,98.40,50.69"/>
    </edge>
    <edge id="gneE17" from="gneJ12" to="gneJ3" priority="-1">
        <lane id="gneE17_0" index="0" speed="13.89" length="111.86" shape="-500.00,98.40,50.51 -400.00,98.40,100.64"/>
    </edge>
    <edge id="gneE20" from="gneJ15" to="gneJ12" priority="-1">
        <lane id="gneE20_0" index="0" speed="13.89" length="111.95" shape="-600.00,98.40,100.83 -500.00,98.40,50.51"/>
    </edge>
    <edge id="gneE23" from="gneJ11" to="gneJ17" priority="-1">
        <lane id="gneE23_0" index="0" speed="13.89" length="100.93" shape="200.00,98.40,50.69 300.00,98.40,37.05"/>
    </edge>
    <edge id="gneE26" from="gneJ1" to="gneJ9" priority="-1">
        <lane id="gneE26_0" index="0" speed="13.89" length="112.37" shape="-100.00,98.40,49.40 0.00,98.40,100.65"/>
    </edge>
    <edge id="gneE3" from="gneJ2" to="gneJ0" priority="-1">
        <lane id="gneE3_0" index="0" speed="13.89" length="111.78" shape="-300.00,98.40,-0.55 -200.00,98.40,49.40"/>
    </edge>
    <edge id="gneE5" from="gneJ3" to="gneJ2" priority="-1">
        <lane id="gneE5_0" index="0" speed="13.89" length="142.27" shape="-400.00,98.40,100.64 -300.00,98.40,-0.55"/>
    </edge>

    <junction id="gneJ0" type="priority" x="-200.00" y="100.00" z="49.40" incLanes="gneE3_0" intLanes=":gneJ0_0_0" shape="-200.00,100.00,49.40 -200.00,96.80,49.40 -200.00,100.00,49.40">
        <request index="0" response="0" foes="0" cont="0"/>
    </junction>
    <junction id="gneJ1" type="priority" x="-100.00" y="100.00" z="49.40" incLanes="gneE0_0" intLanes=":gneJ1_0_0" shape="-100.00,100.00,49.40 -100.00,96.80,49.40 -100.00,100.00,49.40">
        <request index="0" response="0" foes="0" cont="0"/>
    </junction>
    <junction id="gneJ10" type="priority" x="100.00" y="100.00" z="101.38" incLanes="gneE12_0" intLanes=":gneJ10_0_0" shape="100.00,100.00,101.38 100.00,96.80,101.38 100.00,100.00,101.38">
        <request index="0" response="0" foes="0" cont="0"/>
    </junction>
    <junction id="gneJ11" type="priority" x="200.00" y="100.00" z="50.69" incLanes="gneE14_0" intLanes=":gneJ11_0_0" shape="200.00,100.00,50.69 200.00,96.80,50.69 200.00,100.00,50.69">
        <request index="0" response="0" foes="0" cont="0"/>
    </junction>
    <junction id="gneJ12" type="priority" x="-500.00" y="100.00" z="50.51" incLanes="gneE20_0" intLanes=":gneJ12_0_0" shape="-500.00,100.00,50.51 -500.00,96.80,50.51 -500.00,100.00,50.51">
        <request index="0" response="0" foes="0" cont="0"/>
    </junction>
    <junction id="gneJ15" type="priority" x="-600.00" y="100.00" z="100.83" incLanes="gneE22_0" intLanes=":gneJ15_0_0" shape="-600.00,100.00,100.83 -600.00,96.80,100.83 -600.00,100.00,100.83">
        <request index="0" response="0" foes="0" cont="0"/>
    </junction>
    <junction id="gneJ16" type="dead_end" x="-700.00" y="100.00" incLanes="" intLanes="" shape="-700.00,100.00 -700.00,96.80"/>
    <junction id="gneJ17" type="dead_end" x="300.00" y="100.00" z="37.05" incLanes="gneE23_0" intLanes="" shape="300.00,96.80,37.05 300.00,100.00,37.05"/>
    <junction id="gneJ2" type="priority" x="-300.00" y="100.00" z="-0.55" incLanes="gneE5_0" intLanes=":gneJ2_0_0" shape="-300.00,100.00,-0.55 -300.00,96.80,-0.55 -300.00,100.00,-0.55">
        <request index="0" response="0" foes="0" cont="0"/>
    </junction>
    <junction id="gneJ3" type="priority" x="-400.00" y="100.00" z="100.64" incLanes="gneE17_0" intLanes=":gneJ3_0_0" shape="-400.00,100.00,100.64 -400.00,96.80,100.64 -400.00,100.00,100.64">
        <request index="0" response="0" foes="0" cont="0"/>
    </junction>
    <junction id="gneJ9" type="priority" x="0.00" y="100.00" z="100.65" incLanes="gneE26_0" intLanes=":gneJ9_0_0" shape="0.00,100.00,100.65 0.00,96.80,100.65 0.00,100.00,100.65">
        <request index="0" response="0" foes="0" cont="0"/>
    </junction>

    <connection from="gneE0" to="gneE26" fromLane="0" toLane="0" via=":gneJ1_0_0" dir="s" state="M"/>
    <connection from="gneE12" to="gneE14" fromLane="0" toLane="0" via=":gneJ10_0_0" dir="s" state="M"/>
    <connection from="gneE14" to="gneE23" fromLane="0" toLane="0" via=":gneJ11_0_0" dir="s" state="M"/>
    <connection from="gneE17" to="gneE5" fromLane="0" toLane="0" via=":gneJ3_0_0" dir="s" state="M"/>
    <connection from="gneE20" to="gneE17" fromLane="0" toLane="0" via=":gneJ12_0_0" dir="s" state="M"/>
    <connection from="gneE22" to="gneE20" fromLane="0" toLane="0" via=":gneJ15_0_0" dir="s" state="M"/>
    <connection from="gneE26" to="gneE12" fromLane="0" toLane="0" via=":gneJ9_0_0" dir="s" state="M"/>
    <connection from="gneE3" to="gneE0" fromLane="0" toLane="0" via=":gneJ0_0_0" dir="s" state="M"/>
    <connection from="gneE5" to="gneE3" fromLane="0" toLane="0" via=":gneJ2_0_0" dir="s" state="M"/>

    <connection from=":gneJ0_0" to="gneE0" fromLane="0" toLane="0" dir="s" state="M"/>
    <connection from=":gneJ1_0" to="gneE26" fromLane="0" toLane="0" dir="s" state="M"/>
    <connection from=":gneJ10_0" to="gneE14" fromLane="0" toLane="0" dir="s" state="M"/>
    <connection from=":gneJ11_0" to="gneE23" fromLane="0" toLane="0" dir="s" state="M"/>
    <connection from=":gneJ12_0" to="gneE17" fromLane="0" toLane="0" dir="s" state="M"/>
    <connection from=":gneJ15_0" to="gneE20" fromLane="0" toLane="0" dir="s" state="M"/>
    <connection from=":gneJ2_0" to="gneE3" fromLane="0" toLane="0" dir="s" state="M"/>
    <connection from=":gneJ3_0" to="gneE5" fromLane="0" toLane="0" dir="s" state="M"/>
    <connection from=":gneJ9_0" to="gneE12" fromLane="0" toLane="0" dir="s" state="M"/>

</net>
