<?xml version="1.0" encoding="UTF-8"?>

<!-- generated on 08/04/20 22:15:33 by Eclipse SUMO netgenerate Version 1.5.0
<configuration xmlns:xsi="http://www.w3.org/2001/XMLSchema-instance" xsi:noNamespaceSchemaLocation="http://sumo.dlr.de/xsd/netgenerateConfiguration.xsd">

    <grid_network>
        <grid value="true"/>
        <grid.x-number value="51"/>
        <grid.y-number value="2"/>
    </grid_network>

    <output>
        <output-file value="10.net.xml"/>
    </output>

    <processing>
        <perturb-z value="7"/>
    </processing>

    <building_defaults>
        <default.speed value="100"/>
    </building_defaults>

    <random_number>
        <seed value="353863383"/>
    </random_number>

</configuration>
-->

<net version="1.3" junctionCornerDetail="5" limitTurnSpeed="5.50" xmlns:xsi="http://www.w3.org/2001/XMLSchema-instance" xsi:noNamespaceSchemaLocation="http://sumo.dlr.de/xsd/net_file.xsd">

    <location netOffset="0.00,0.00" convBoundary="0.00,0.00,5000.00,100.00" origBoundary="0.00,0.00,5000.00,100.00" projParameter="!"/>

    <edge id=":AA0_0" function="internal">
        <lane id=":AA0_0_0" index="0" speed="6.08" length="7.76" shape="-1.60,3.20,-2.95 -1.30,1.10,-3.09 -0.40,-0.40,-3.20 1.10,-1.30,-3.31 3.20,-1.60,-3.44"/>
    </edge>
    <edge id=":AA0_1" function="internal">
        <lane id=":AA0_1_0" index="0" speed="3.90" length="2.63" shape="3.20,1.60,-3.44 2.50,1.70,-3.31 2.00,2.00,-3.20 1.70,2.50,-3.09 1.60,3.20,-2.95"/>
    </edge>
    <edge id=":AA1_0" function="internal">
        <lane id=":AA1_0_0" index="0" speed="6.08" length="7.74" shape="3.20,101.60,11.16 1.10,101.30,11.15 -0.40,100.40,11.14 -1.30,98.90,11.13 -1.60,96.80,11.12"/>
    </edge>
    <edge id=":AA1_1" function="internal">
        <lane id=":AA1_1_0" index="0" speed="3.90" length="2.58" shape="1.60,96.80,11.12 1.70,97.50,11.14 2.00,98.00,11.16 2.50,98.30,11.17 3.20,98.40,11.19"/>
    </edge>
    <edge id=":AB0_0" function="internal">
        <lane id=":AB0_0_0" index="0" speed="6.51" length="9.03" shape="98.40,7.20,-3.45 98.05,4.75,-3.49 97.00,3.00,-3.52 95.25,1.95,-3.55 92.80,1.60,-3.59"/>
    </edge>
    <edge id=":AB0_1" function="internal">
        <lane id=":AB0_1_0" index="0" speed="8.00" length="14.19" shape="98.40,7.20,-3.45 98.95,3.35,-3.45 100.60,0.60,-3.45 103.35,-1.05,-3.46 107.20,-1.60,-3.46"/>
    </edge>
    <edge id=":AB0_2" function="internal">
        <lane id=":AB0_2_0" index="0" speed="3.65" length="4.67" shape="98.40,7.20,-3.45 99.20,6.00,-3.45 100.00,5.60,-3.45 100.80,6.00,-3.45 101.60,7.20,-3.45"/>
    </edge>
    <edge id=":AB0_3" function="internal">
        <lane id=":AB0_3_0" index="0" speed="6.51" length="9.03" shape="107.20,1.60,-3.46 104.75,1.95,-3.46 103.00,3.00,-3.45 101.95,4.75,-3.45 101.60,7.20,-3.45"/>
    </edge>
    <edge id=":AB0_4" function="internal">
        <lane id=":AB0_4_0" index="0" speed="100.00" length="14.40" shape="107.20,1.60,-3.46 92.80,1.60,-3.59"/>
    </edge>
    <edge id=":AB0_5" function="internal">
        <lane id=":AB0_5_0" index="0" speed="3.65" length="2.34" shape="107.20,1.60,-3.46 106.00,0.80,-3.46 105.60,0.00,-3.46"/>
    </edge>
    <edge id=":AB0_9" function="internal">
        <lane id=":AB0_9_0" index="0" speed="3.65" length="2.34" shape="105.60,0.00,-3.46 106.00,-0.80,-3.46 107.20,-1.60,-3.46"/>
    </edge>
    <edge id=":AB0_6" function="internal">
        <lane id=":AB0_6_0" index="0" speed="100.00" length="14.40" shape="92.80,-1.60,-3.59 107.20,-1.60,-3.46"/>
    </edge>
    <edge id=":AB0_7" function="internal">
        <lane id=":AB0_7_0" index="0" speed="8.00" length="5.93" shape="92.80,-1.60,-3.59 96.65,-1.05,-3.55 98.40,-0.00,-3.53"/>
    </edge>
    <edge id=":AB0_8" function="internal">
        <lane id=":AB0_8_0" index="0" speed="3.65" length="2.34" shape="92.80,-1.60,-3.59 94.00,-0.80,-3.59 94.40,0.00,-3.59"/>
    </edge>
    <edge id=":AB0_10" function="internal">
        <lane id=":AB0_10_0" index="0" speed="8.00" length="8.26" shape="98.40,-0.00,-3.53 99.40,0.60,-3.52 101.05,3.35,-3.49 101.60,7.20,-3.45"/>
    </edge>
    <edge id=":AB0_11" function="internal">
        <lane id=":AB0_11_0" index="0" speed="3.65" length="2.34" shape="94.40,0.00,-3.59 94.00,0.80,-3.59 92.80,1.60,-3.59"/>
    </edge>
    <edge id=":AB1_0" function="internal">
        <lane id=":AB1_0_0" index="0" speed="100.00" length="14.40" shape="107.20,101.60,-1.45 92.80,101.60,-1.45"/>
    </edge>
    <edge id=":AB1_1" function="internal">
        <lane id=":AB1_1_0" index="0" speed="8.00" length="5.93" shape="107.20,101.60,-1.45 103.35,101.05,-1.49 101.60,100.00,-1.51"/>
    </edge>
    <edge id=":AB1_2" function="internal">
        <lane id=":AB1_2_0" index="0" speed="3.65" length="2.34" shape="107.20,101.60,-1.45 106.00,100.80,-1.45 105.60,100.00,-1.45"/>
    </edge>
    <edge id=":AB1_9" function="internal">
        <lane id=":AB1_9_0" index="0" speed="8.00" length="8.26" shape="101.60,100.00,-1.51 100.60,99.40,-1.53 98.95,96.65,-1.56 98.40,92.80,-1.60"/>
    </edge>
    <edge id=":AB1_10" function="internal">
        <lane id=":AB1_10_0" index="0" speed="3.65" length="2.34" shape="105.60,100.00,-1.45 106.00,99.20,-1.45 107.20,98.40,-1.45"/>
    </edge>
    <edge id=":AB1_3" function="internal">
        <lane id=":AB1_3_0" index="0" speed="6.51" length="9.03" shape="101.60,92.80,-1.60 101.95,95.25,-1.56 103.00,97.00,-1.53 104.75,98.05,-1.49 107.20,98.40,-1.45"/>
    </edge>
    <edge id=":AB1_4" function="internal">
        <lane id=":AB1_4_0" index="0" speed="8.00" length="14.19" shape="101.60,92.80,-1.60 101.05,96.65,-1.56 99.40,99.40,-1.53 96.65,101.05,-1.49 92.80,101.60,-1.45"/>
    </edge>
    <edge id=":AB1_5" function="internal">
        <lane id=":AB1_5_0" index="0" speed="3.65" length="4.67" shape="101.60,92.80,-1.60 100.80,94.00,-1.60 100.00,94.40,-1.60 99.20,94.00,-1.60 98.40,92.80,-1.60"/>
    </edge>
    <edge id=":AB1_6" function="internal">
        <lane id=":AB1_6_0" index="0" speed="6.51" length="9.03" shape="92.80,98.40,-1.45 95.25,98.05,-1.49 97.00,97.00,-1.53 98.05,95.25,-1.56 98.40,92.80,-1.60"/>
    </edge>
    <edge id=":AB1_7" function="internal">
        <lane id=":AB1_7_0" index="0" speed="100.00" length="14.40" shape="92.80,98.40,-1.45 107.20,98.40,-1.45"/>
    </edge>
    <edge id=":AB1_8" function="internal">
        <lane id=":AB1_8_0" index="0" speed="3.65" length="2.34" shape="92.80,98.40,-1.45 94.00,99.20,-1.45 94.40,100.00,-1.45"/>
    </edge>
    <edge id=":AB1_11" function="internal">
        <lane id=":AB1_11_0" index="0" speed="3.65" length="2.34" shape="94.40,100.00,-1.45 94.00,100.80,-1.45 92.80,101.60,-1.45"/>
    </edge>
    <edge id=":AC0_0" function="internal">
        <lane id=":AC0_0_0" index="0" speed="6.51" length="9.03" shape="198.40,7.20,-1.80 198.05,4.75,-1.79 197.00,3.00,-1.78 195.25,1.95,-1.77 192.80,1.60,-1.76"/>
    </edge>
    <edge id=":AC0_1" function="internal">
        <lane id=":AC0_1_0" index="0" speed="8.00" length="14.19" shape="198.40,7.20,-1.80 198.95,3.35,-1.75 200.60,0.60,-1.71 203.35,-1.05,-1.67 207.20,-1.60,-1.62"/>
    </edge>
    <edge id=":AC0_2" function="internal">
        <lane id=":AC0_2_0" index="0" speed="3.65" length="4.67" shape="198.40,7.20,-1.80 199.20,6.00,-1.80 200.00,5.60,-1.80 200.80,6.00,-1.80 201.60,7.20,-1.80"/>
    </edge>
    <edge id=":AC0_3" function="internal">
        <lane id=":AC0_3_0" index="0" speed="6.51" length="9.03" shape="207.20,1.60,-1.62 204.75,1.95,-1.67 203.00,3.00,-1.71 201.95,4.75,-1.75 201.60,7.20,-1.80"/>
    </edge>
    <edge id=":AC0_4" function="internal">
        <lane id=":AC0_4_0" index="0" speed="100.00" length="14.40" shape="207.20,1.60,-1.62 192.80,1.60,-1.76"/>
    </edge>
    <edge id=":AC0_5" function="internal">
        <lane id=":AC0_5_0" index="0" speed="3.65" length="2.34" shape="207.20,1.60,-1.62 206.00,0.80,-1.62 205.60,0.00,-1.62"/>
    </edge>
    <edge id=":AC0_9" function="internal">
        <lane id=":AC0_9_0" index="0" speed="3.65" length="2.34" shape="205.60,0.00,-1.62 206.00,-0.80,-1.62 207.20,-1.60,-1.62"/>
    </edge>
    <edge id=":AC0_6" function="internal">
        <lane id=":AC0_6_0" index="0" speed="100.00" length="14.40" shape="192.80,-1.60,-1.76 207.20,-1.60,-1.62"/>
    </edge>
    <edge id=":AC0_7" function="internal">
        <lane id=":AC0_7_0" index="0" speed="8.00" length="5.93" shape="192.80,-1.60,-1.76 196.65,-1.05,-1.77 198.40,-0.00,-1.78"/>
    </edge>
    <edge id=":AC0_8" function="internal">
        <lane id=":AC0_8_0" index="0" speed="3.65" length="2.34" shape="192.80,-1.60,-1.76 194.00,-0.80,-1.76 194.40,0.00,-1.76"/>
    </edge>
    <edge id=":AC0_10" function="internal">
        <lane id=":AC0_10_0" index="0" speed="8.00" length="8.26" shape="198.40,-0.00,-1.78 199.40,0.60,-1.78 201.05,3.35,-1.79 201.60,7.20,-1.80"/>
    </edge>
    <edge id=":AC0_11" function="internal">
        <lane id=":AC0_11_0" index="0" speed="3.65" length="2.34" shape="194.40,0.00,-1.76 194.00,0.80,-1.76 192.80,1.60,-1.76"/>
    </edge>
    <edge id=":AC1_0" function="internal">
        <lane id=":AC1_0_0" index="0" speed="100.00" length="14.40" shape="207.20,101.60,-4.29 192.80,101.60,-4.23"/>
    </edge>
    <edge id=":AC1_1" function="internal">
        <lane id=":AC1_1_0" index="0" speed="8.00" length="5.93" shape="207.20,101.60,-4.29 203.35,101.05,-4.22 201.60,100.00,-4.18"/>
    </edge>
    <edge id=":AC1_2" function="internal">
        <lane id=":AC1_2_0" index="0" speed="3.65" length="2.34" shape="207.20,101.60,-4.29 206.00,100.80,-4.29 205.60,100.00,-4.29"/>
    </edge>
    <edge id=":AC1_9" function="internal">
        <lane id=":AC1_9_0" index="0" speed="8.00" length="8.26" shape="201.60,100.00,-4.18 200.60,99.40,-4.16 198.95,96.65,-4.11 198.40,92.80,-4.04"/>
    </edge>
    <edge id=":AC1_10" function="internal">
        <lane id=":AC1_10_0" index="0" speed="3.65" length="2.34" shape="205.60,100.00,-4.29 206.00,99.20,-4.29 207.20,98.40,-4.29"/>
    </edge>
    <edge id=":AC1_3" function="internal">
        <lane id=":AC1_3_0" index="0" speed="6.51" length="9.03" shape="201.60,92.80,-4.04 201.95,95.25,-4.11 203.00,97.00,-4.16 204.75,98.05,-4.22 207.20,98.40,-4.29"/>
    </edge>
    <edge id=":AC1_4" function="internal">
        <lane id=":AC1_4_0" index="0" speed="8.00" length="14.19" shape="201.60,92.80,-4.04 201.05,96.65,-4.09 199.40,99.40,-4.14 196.65,101.05,-4.18 192.80,101.60,-4.23"/>
    </edge>
    <edge id=":AC1_5" function="internal">
        <lane id=":AC1_5_0" index="0" speed="3.65" length="4.67" shape="201.60,92.80,-4.04 200.80,94.00,-4.04 200.00,94.40,-4.04 199.20,94.00,-4.04 198.40,92.80,-4.04"/>
    </edge>
    <edge id=":AC1_6" function="internal">
        <lane id=":AC1_6_0" index="0" speed="6.51" length="9.03" shape="192.80,98.40,-4.23 195.25,98.05,-4.18 197.00,97.00,-4.14 198.05,95.25,-4.09 198.40,92.80,-4.04"/>
    </edge>
    <edge id=":AC1_7" function="internal">
        <lane id=":AC1_7_0" index="0" speed="100.00" length="14.40" shape="192.80,98.40,-4.23 207.20,98.40,-4.29"/>
    </edge>
    <edge id=":AC1_8" function="internal">
        <lane id=":AC1_8_0" index="0" speed="3.65" length="2.34" shape="192.80,98.40,-4.23 194.00,99.20,-4.23 194.40,100.00,-4.23"/>
    </edge>
    <edge id=":AC1_11" function="internal">
        <lane id=":AC1_11_0" index="0" speed="3.65" length="2.34" shape="194.40,100.00,-4.23 194.00,100.80,-4.23 192.80,101.60,-4.23"/>
    </edge>
    <edge id=":AD0_0" function="internal">
        <lane id=":AD0_0_0" index="0" speed="6.51" length="9.03" shape="298.40,7.20,1.66 298.05,4.75,1.66 297.00,3.00,1.66 295.25,1.95,1.66 292.80,1.60,1.66"/>
    </edge>
    <edge id=":AD0_1" function="internal">
        <lane id=":AD0_1_0" index="0" speed="8.00" length="14.19" shape="298.40,7.20,1.66 298.95,3.35,1.66 300.60,0.60,1.66 303.35,-1.05,1.66 307.20,-1.60,1.66"/>
    </edge>
    <edge id=":AD0_2" function="internal">
        <lane id=":AD0_2_0" index="0" speed="3.65" length="4.67" shape="298.40,7.20,1.66 299.20,6.00,1.66 300.00,5.60,1.66 300.80,6.00,1.66 301.60,7.20,1.66"/>
    </edge>
    <edge id=":AD0_3" function="internal">
        <lane id=":AD0_3_0" index="0" speed="6.51" length="9.03" shape="307.20,1.60,1.66 304.75,1.95,1.66 303.00,3.00,1.66 301.95,4.75,1.66 301.60,7.20,1.66"/>
    </edge>
    <edge id=":AD0_4" function="internal">
        <lane id=":AD0_4_0" index="0" speed="100.00" length="14.40" shape="307.20,1.60,1.66 292.80,1.60,1.66"/>
    </edge>
    <edge id=":AD0_5" function="internal">
        <lane id=":AD0_5_0" index="0" speed="3.65" length="2.34" shape="307.20,1.60,1.66 306.00,0.80,1.66 305.60,0.00,1.66"/>
    </edge>
    <edge id=":AD0_9" function="internal">
        <lane id=":AD0_9_0" index="0" speed="3.65" length="2.34" shape="305.60,0.00,1.66 306.00,-0.80,1.66 307.20,-1.60,1.66"/>
    </edge>
    <edge id=":AD0_6" function="internal">
        <lane id=":AD0_6_0" index="0" speed="100.00" length="14.40" shape="292.80,-1.60,1.66 307.20,-1.60,1.66"/>
    </edge>
    <edge id=":AD0_7" function="internal">
        <lane id=":AD0_7_0" index="0" speed="8.00" length="5.93" shape="292.80,-1.60,1.66 296.65,-1.05,1.66 298.40,-0.00,1.66"/>
    </edge>
    <edge id=":AD0_8" function="internal">
        <lane id=":AD0_8_0" index="0" speed="3.65" length="2.34" shape="292.80,-1.60,1.66 294.00,-0.80,1.66 294.40,0.00,1.66"/>
    </edge>
    <edge id=":AD0_10" function="internal">
        <lane id=":AD0_10_0" index="0" speed="8.00" length="8.26" shape="298.40,-0.00,1.66 299.40,0.60,1.66 301.05,3.35,1.66 301.60,7.20,1.66"/>
    </edge>
    <edge id=":AD0_11" function="internal">
        <lane id=":AD0_11_0" index="0" speed="3.65" length="2.34" shape="294.40,0.00,1.66 294.00,0.80,1.66 292.80,1.60,1.66"/>
    </edge>
    <edge id=":AD1_0" function="internal">
        <lane id=":AD1_0_0" index="0" speed="100.00" length="14.40" shape="307.20,101.60,-5.01 292.80,101.60,-4.95"/>
    </edge>
    <edge id=":AD1_1" function="internal">
        <lane id=":AD1_1_0" index="0" speed="8.00" length="5.93" shape="307.20,101.60,-5.01 303.35,101.05,-5.01 301.60,100.00,-5.01"/>
    </edge>
    <edge id=":AD1_2" function="internal">
        <lane id=":AD1_2_0" index="0" speed="3.65" length="2.34" shape="307.20,101.60,-5.01 306.00,100.80,-5.01 305.60,100.00,-5.01"/>
    </edge>
    <edge id=":AD1_9" function="internal">
        <lane id=":AD1_9_0" index="0" speed="8.00" length="8.26" shape="301.60,100.00,-5.01 300.60,99.40,-5.01 298.95,96.65,-5.01 298.40,92.80,-5.01"/>
    </edge>
    <edge id=":AD1_10" function="internal">
        <lane id=":AD1_10_0" index="0" speed="3.65" length="2.34" shape="305.60,100.00,-5.01 306.00,99.20,-5.01 307.20,98.40,-5.01"/>
    </edge>
    <edge id=":AD1_3" function="internal">
        <lane id=":AD1_3_0" index="0" speed="6.51" length="9.03" shape="301.60,92.80,-5.01 301.95,95.25,-5.01 303.00,97.00,-5.01 304.75,98.05,-5.01 307.20,98.40,-5.01"/>
    </edge>
    <edge id=":AD1_4" function="internal">
        <lane id=":AD1_4_0" index="0" speed="8.00" length="14.19" shape="301.60,92.80,-5.01 301.05,96.65,-4.99 299.40,99.40,-4.98 296.65,101.05,-4.97 292.80,101.60,-4.95"/>
    </edge>
    <edge id=":AD1_5" function="internal">
        <lane id=":AD1_5_0" index="0" speed="3.65" length="4.67" shape="301.60,92.80,-5.01 300.80,94.00,-5.01 300.00,94.40,-5.01 299.20,94.00,-5.01 298.40,92.80,-5.01"/>
    </edge>
    <edge id=":AD1_6" function="internal">
        <lane id=":AD1_6_0" index="0" speed="6.51" length="9.03" shape="292.80,98.40,-4.95 295.25,98.05,-4.97 297.00,97.00,-4.98 298.05,95.25,-4.99 298.40,92.80,-5.01"/>
    </edge>
    <edge id=":AD1_7" function="internal">
        <lane id=":AD1_7_0" index="0" speed="100.00" length="14.40" shape="292.80,98.40,-4.95 307.20,98.40,-5.01"/>
    </edge>
    <edge id=":AD1_8" function="internal">
        <lane id=":AD1_8_0" index="0" speed="3.65" length="2.34" shape="292.80,98.40,-4.95 294.00,99.20,-4.95 294.40,100.00,-4.95"/>
    </edge>
    <edge id=":AD1_11" function="internal">
        <lane id=":AD1_11_0" index="0" speed="3.65" length="2.34" shape="294.40,100.00,-4.95 294.00,100.80,-4.95 292.80,101.60,-4.95"/>
    </edge>
    <edge id=":AE0_0" function="internal">
        <lane id=":AE0_0_0" index="0" speed="6.51" length="9.03" shape="398.40,7.20,-5.10 398.05,4.75,-5.10 397.00,3.00,-5.10 395.25,1.95,-5.10 392.80,1.60,-5.10"/>
    </edge>
    <edge id=":AE0_1" function="internal">
        <lane id=":AE0_1_0" index="0" speed="8.00" length="14.19" shape="398.40,7.20,-5.10 398.95,3.35,-5.10 400.60,0.60,-5.10 403.35,-1.05,-5.10 407.20,-1.60,-5.10"/>
    </edge>
    <edge id=":AE0_2" function="internal">
        <lane id=":AE0_2_0" index="0" speed="3.65" length="4.67" shape="398.40,7.20,-5.10 399.20,6.00,-5.10 400.00,5.60,-5.10 400.80,6.00,-5.10 401.60,7.20,-5.10"/>
    </edge>
    <edge id=":AE0_3" function="internal">
        <lane id=":AE0_3_0" index="0" speed="6.51" length="9.03" shape="407.20,1.60,-5.10 404.75,1.95,-5.10 403.00,3.00,-5.10 401.95,4.75,-5.10 401.60,7.20,-5.10"/>
    </edge>
    <edge id=":AE0_4" function="internal">
        <lane id=":AE0_4_0" index="0" speed="100.00" length="14.40" shape="407.20,1.60,-5.10 392.80,1.60,-5.10"/>
    </edge>
    <edge id=":AE0_5" function="internal">
        <lane id=":AE0_5_0" index="0" speed="3.65" length="2.34" shape="407.20,1.60,-5.10 406.00,0.80,-5.10 405.60,0.00,-5.10"/>
    </edge>
    <edge id=":AE0_9" function="internal">
        <lane id=":AE0_9_0" index="0" speed="3.65" length="2.34" shape="405.60,0.00,-5.10 406.00,-0.80,-5.10 407.20,-1.60,-5.10"/>
    </edge>
    <edge id=":AE0_6" function="internal">
        <lane id=":AE0_6_0" index="0" speed="100.00" length="14.40" shape="392.80,-1.60,-5.10 407.20,-1.60,-5.10"/>
    </edge>
    <edge id=":AE0_7" function="internal">
        <lane id=":AE0_7_0" index="0" speed="8.00" length="5.93" shape="392.80,-1.60,-5.10 396.65,-1.05,-5.10 398.40,-0.00,-5.10"/>
    </edge>
    <edge id=":AE0_8" function="internal">
        <lane id=":AE0_8_0" index="0" speed="3.65" length="2.34" shape="392.80,-1.60,-5.10 394.00,-0.80,-5.10 394.40,0.00,-5.10"/>
    </edge>
    <edge id=":AE0_10" function="internal">
        <lane id=":AE0_10_0" index="0" speed="8.00" length="8.26" shape="398.40,-0.00,-5.10 399.40,0.60,-5.10 401.05,3.35,-5.10 401.60,7.20,-5.10"/>
    </edge>
    <edge id=":AE0_11" function="internal">
        <lane id=":AE0_11_0" index="0" speed="3.65" length="2.34" shape="394.40,0.00,-5.10 394.00,0.80,-5.10 392.80,1.60,-5.10"/>
    </edge>
    <edge id=":AE1_0" function="internal">
        <lane id=":AE1_0_0" index="0" speed="100.00" length="14.40" shape="407.20,101.60,0.84 392.80,101.60,0.90"/>
    </edge>
    <edge id=":AE1_1" function="internal">
        <lane id=":AE1_1_0" index="0" speed="8.00" length="5.93" shape="407.20,101.60,0.84 403.35,101.05,0.86 401.60,100.00,0.86"/>
    </edge>
    <edge id=":AE1_2" function="internal">
        <lane id=":AE1_2_0" index="0" speed="3.65" length="2.34" shape="407.20,101.60,0.84 406.00,100.80,0.84 405.60,100.00,0.84"/>
    </edge>
    <edge id=":AE1_9" function="internal">
        <lane id=":AE1_9_0" index="0" speed="8.00" length="8.26" shape="401.60,100.00,0.86 400.60,99.40,0.87 398.95,96.65,0.88 398.40,92.80,0.90"/>
    </edge>
    <edge id=":AE1_10" function="internal">
        <lane id=":AE1_10_0" index="0" speed="3.65" length="2.34" shape="405.60,100.00,0.84 406.00,99.20,0.84 407.20,98.40,0.84"/>
    </edge>
    <edge id=":AE1_3" function="internal">
        <lane id=":AE1_3_0" index="0" speed="6.51" length="9.03" shape="401.60,92.80,0.90 401.95,95.25,0.88 403.00,97.00,0.87 404.75,98.05,0.86 407.20,98.40,0.84"/>
    </edge>
    <edge id=":AE1_4" function="internal">
        <lane id=":AE1_4_0" index="0" speed="8.00" length="14.19" shape="401.60,92.80,0.90 401.05,96.65,0.90 399.40,99.40,0.90 396.65,101.05,0.90 392.80,101.60,0.90"/>
    </edge>
    <edge id=":AE1_5" function="internal">
        <lane id=":AE1_5_0" index="0" speed="3.65" length="4.67" shape="401.60,92.80,0.90 400.80,94.00,0.90 400.00,94.40,0.90 399.20,94.00,0.90 398.40,92.80,0.90"/>
    </edge>
    <edge id=":AE1_6" function="internal">
        <lane id=":AE1_6_0" index="0" speed="6.51" length="9.03" shape="392.80,98.40,0.90 395.25,98.05,0.90 397.00,97.00,0.90 398.05,95.25,0.90 398.40,92.80,0.90"/>
    </edge>
    <edge id=":AE1_7" function="internal">
        <lane id=":AE1_7_0" index="0" speed="100.00" length="14.40" shape="392.80,98.40,0.90 407.20,98.40,0.84"/>
    </edge>
    <edge id=":AE1_8" function="internal">
        <lane id=":AE1_8_0" index="0" speed="3.65" length="2.34" shape="392.80,98.40,0.90 394.00,99.20,0.90 394.40,100.00,0.90"/>
    </edge>
    <edge id=":AE1_11" function="internal">
        <lane id=":AE1_11_0" index="0" speed="3.65" length="2.34" shape="394.40,100.00,0.90 394.00,100.80,0.90 392.80,101.60,0.90"/>
    </edge>
    <edge id=":AF0_0" function="internal">
        <lane id=":AF0_0_0" index="0" speed="6.51" length="9.03" shape="498.40,7.20,9.88 498.05,4.75,9.88 497.00,3.00,9.88 495.25,1.95,9.88 492.80,1.60,9.88"/>
    </edge>
    <edge id=":AF0_1" function="internal">
        <lane id=":AF0_1_0" index="0" speed="8.00" length="14.19" shape="498.40,7.20,9.88 498.95,3.35,9.88 500.60,0.60,9.88 503.35,-1.05,9.88 507.20,-1.60,9.88"/>
    </edge>
    <edge id=":AF0_2" function="internal">
        <lane id=":AF0_2_0" index="0" speed="3.65" length="4.67" shape="498.40,7.20,9.88 499.20,6.00,9.88 500.00,5.60,9.88 500.80,6.00,9.88 501.60,7.20,9.88"/>
    </edge>
    <edge id=":AF0_3" function="internal">
        <lane id=":AF0_3_0" index="0" speed="6.51" length="9.03" shape="507.20,1.60,9.88 504.75,1.95,9.88 503.00,3.00,9.88 501.95,4.75,9.88 501.60,7.20,9.88"/>
    </edge>
    <edge id=":AF0_4" function="internal">
        <lane id=":AF0_4_0" index="0" speed="100.00" length="14.40" shape="507.20,1.60,9.88 492.80,1.60,9.88"/>
    </edge>
    <edge id=":AF0_5" function="internal">
        <lane id=":AF0_5_0" index="0" speed="3.65" length="2.34" shape="507.20,1.60,9.88 506.00,0.80,9.88 505.60,0.00,9.88"/>
    </edge>
    <edge id=":AF0_9" function="internal">
        <lane id=":AF0_9_0" index="0" speed="3.65" length="2.34" shape="505.60,0.00,9.88 506.00,-0.80,9.88 507.20,-1.60,9.88"/>
    </edge>
    <edge id=":AF0_6" function="internal">
        <lane id=":AF0_6_0" index="0" speed="100.00" length="14.40" shape="492.80,-1.60,9.88 507.20,-1.60,9.88"/>
    </edge>
    <edge id=":AF0_7" function="internal">
        <lane id=":AF0_7_0" index="0" speed="8.00" length="5.93" shape="492.80,-1.60,9.88 496.65,-1.05,9.88 498.40,-0.00,9.88"/>
    </edge>
    <edge id=":AF0_8" function="internal">
        <lane id=":AF0_8_0" index="0" speed="3.65" length="2.34" shape="492.80,-1.60,9.88 494.00,-0.80,9.88 494.40,0.00,9.88"/>
    </edge>
    <edge id=":AF0_10" function="internal">
        <lane id=":AF0_10_0" index="0" speed="8.00" length="8.26" shape="498.40,-0.00,9.88 499.40,0.60,9.88 501.05,3.35,9.88 501.60,7.20,9.88"/>
    </edge>
    <edge id=":AF0_11" function="internal">
        <lane id=":AF0_11_0" index="0" speed="3.65" length="2.34" shape="494.40,0.00,9.88 494.00,0.80,9.88 492.80,1.60,9.88"/>
    </edge>
    <edge id=":AF1_0" function="internal">
        <lane id=":AF1_0_0" index="0" speed="100.00" length="14.40" shape="507.20,101.60,0.05 492.80,101.60,0.11"/>
    </edge>
    <edge id=":AF1_1" function="internal">
        <lane id=":AF1_1_0" index="0" speed="8.00" length="5.93" shape="507.20,101.60,0.05 503.35,101.05,0.05 501.60,100.00,0.05"/>
    </edge>
    <edge id=":AF1_2" function="internal">
        <lane id=":AF1_2_0" index="0" speed="3.65" length="2.34" shape="507.20,101.60,0.05 506.00,100.80,0.05 505.60,100.00,0.05"/>
    </edge>
    <edge id=":AF1_9" function="internal">
        <lane id=":AF1_9_0" index="0" speed="8.00" length="8.26" shape="501.60,100.00,0.05 500.60,99.40,0.05 498.95,96.65,0.05 498.40,92.80,0.05"/>
    </edge>
    <edge id=":AF1_10" function="internal">
        <lane id=":AF1_10_0" index="0" speed="3.65" length="2.34" shape="505.60,100.00,0.05 506.00,99.20,0.05 507.20,98.40,0.05"/>
    </edge>
    <edge id=":AF1_3" function="internal">
        <lane id=":AF1_3_0" index="0" speed="6.51" length="9.03" shape="501.60,92.80,0.05 501.95,95.25,0.05 503.00,97.00,0.05 504.75,98.05,0.05 507.20,98.40,0.05"/>
    </edge>
    <edge id=":AF1_4" function="internal">
        <lane id=":AF1_4_0" index="0" speed="8.00" length="14.19" shape="501.60,92.80,0.05 501.05,96.65,0.07 499.40,99.40,0.08 496.65,101.05,0.10 492.80,101.60,0.11"/>
    </edge>
    <edge id=":AF1_5" function="internal">
        <lane id=":AF1_5_0" index="0" speed="3.65" length="4.67" shape="501.60,92.80,0.05 500.80,94.00,0.05 500.00,94.40,0.05 499.20,94.00,0.05 498.40,92.80,0.05"/>
    </edge>
    <edge id=":AF1_6" function="internal">
        <lane id=":AF1_6_0" index="0" speed="6.51" length="9.03" shape="492.80,98.40,0.11 495.25,98.05,0.10 497.00,97.00,0.08 498.05,95.25,0.07 498.40,92.80,0.05"/>
    </edge>
    <edge id=":AF1_7" function="internal">
        <lane id=":AF1_7_0" index="0" speed="100.00" length="14.40" shape="492.80,98.40,0.11 507.20,98.40,0.05"/>
    </edge>
    <edge id=":AF1_8" function="internal">
        <lane id=":AF1_8_0" index="0" speed="3.65" length="2.34" shape="492.80,98.40,0.11 494.00,99.20,0.11 494.40,100.00,0.11"/>
    </edge>
    <edge id=":AF1_11" function="internal">
        <lane id=":AF1_11_0" index="0" speed="3.65" length="2.34" shape="494.40,100.00,0.11 494.00,100.80,0.11 492.80,101.60,0.11"/>
    </edge>
    <edge id=":AG0_0" function="internal">
        <lane id=":AG0_0_0" index="0" speed="6.51" length="9.03" shape="598.40,7.20,-1.76 598.05,4.75,-1.76 597.00,3.00,-1.76 595.25,1.95,-1.76 592.80,1.60,-1.76"/>
    </edge>
    <edge id=":AG0_1" function="internal">
        <lane id=":AG0_1_0" index="0" speed="8.00" length="14.19" shape="598.40,7.20,-1.76 598.95,3.35,-1.74 600.60,0.60,-1.72 603.35,-1.05,-1.70 607.20,-1.60,-1.67"/>
    </edge>
    <edge id=":AG0_2" function="internal">
        <lane id=":AG0_2_0" index="0" speed="3.65" length="4.67" shape="598.40,7.20,-1.76 599.20,6.00,-1.76 600.00,5.60,-1.76 600.80,6.00,-1.76 601.60,7.20,-1.76"/>
    </edge>
    <edge id=":AG0_3" function="internal">
        <lane id=":AG0_3_0" index="0" speed="6.51" length="9.03" shape="607.20,1.60,-1.67 604.75,1.95,-1.70 603.00,3.00,-1.72 601.95,4.75,-1.74 601.60,7.20,-1.76"/>
    </edge>
    <edge id=":AG0_4" function="internal">
        <lane id=":AG0_4_0" index="0" speed="100.00" length="14.40" shape="607.20,1.60,-1.67 592.80,1.60,-1.76"/>
    </edge>
    <edge id=":AG0_5" function="internal">
        <lane id=":AG0_5_0" index="0" speed="3.65" length="2.34" shape="607.20,1.60,-1.67 606.00,0.80,-1.67 605.60,0.00,-1.67"/>
    </edge>
    <edge id=":AG0_9" function="internal">
        <lane id=":AG0_9_0" index="0" speed="3.65" length="2.34" shape="605.60,0.00,-1.67 606.00,-0.80,-1.67 607.20,-1.60,-1.67"/>
    </edge>
    <edge id=":AG0_6" function="internal">
        <lane id=":AG0_6_0" index="0" speed="100.00" length="14.40" shape="592.80,-1.60,-1.76 607.20,-1.60,-1.67"/>
    </edge>
    <edge id=":AG0_7" function="internal">
        <lane id=":AG0_7_0" index="0" speed="8.00" length="5.93" shape="592.80,-1.60,-1.76 596.65,-1.05,-1.76 598.40,-0.00,-1.76"/>
    </edge>
    <edge id=":AG0_8" function="internal">
        <lane id=":AG0_8_0" index="0" speed="3.65" length="2.34" shape="592.80,-1.60,-1.76 594.00,-0.80,-1.76 594.40,0.00,-1.76"/>
    </edge>
    <edge id=":AG0_10" function="internal">
        <lane id=":AG0_10_0" index="0" speed="8.00" length="8.26" shape="598.40,-0.00,-1.76 599.40,0.60,-1.76 601.05,3.35,-1.76 601.60,7.20,-1.76"/>
    </edge>
    <edge id=":AG0_11" function="internal">
        <lane id=":AG0_11_0" index="0" speed="3.65" length="2.34" shape="594.40,0.00,-1.76 594.00,0.80,-1.76 592.80,1.60,-1.76"/>
    </edge>
    <edge id=":AG1_0" function="internal">
        <lane id=":AG1_0_0" index="0" speed="100.00" length="14.40" shape="607.20,101.60,13.26 592.80,101.60,13.26"/>
    </edge>
    <edge id=":AG1_1" function="internal">
        <lane id=":AG1_1_0" index="0" speed="8.00" length="5.93" shape="607.20,101.60,13.26 603.35,101.05,13.26 601.60,100.00,13.26"/>
    </edge>
    <edge id=":AG1_2" function="internal">
        <lane id=":AG1_2_0" index="0" speed="3.65" length="2.34" shape="607.20,101.60,13.26 606.00,100.80,13.26 605.60,100.00,13.26"/>
    </edge>
    <edge id=":AG1_9" function="internal">
        <lane id=":AG1_9_0" index="0" speed="8.00" length="8.26" shape="601.60,100.00,13.26 600.60,99.40,13.26 598.95,96.65,13.26 598.40,92.80,13.26"/>
    </edge>
    <edge id=":AG1_10" function="internal">
        <lane id=":AG1_10_0" index="0" speed="3.65" length="2.34" shape="605.60,100.00,13.26 606.00,99.20,13.26 607.20,98.40,13.26"/>
    </edge>
    <edge id=":AG1_3" function="internal">
        <lane id=":AG1_3_0" index="0" speed="6.51" length="9.03" shape="601.60,92.80,13.26 601.95,95.25,13.26 603.00,97.00,13.26 604.75,98.05,13.26 607.20,98.40,13.26"/>
    </edge>
    <edge id=":AG1_4" function="internal">
        <lane id=":AG1_4_0" index="0" speed="8.00" length="14.19" shape="601.60,92.80,13.26 601.05,96.65,13.26 599.40,99.40,13.26 596.65,101.05,13.26 592.80,101.60,13.26"/>
    </edge>
    <edge id=":AG1_5" function="internal">
        <lane id=":AG1_5_0" index="0" speed="3.65" length="4.67" shape="601.60,92.80,13.26 600.80,94.00,13.26 600.00,94.40,13.26 599.20,94.00,13.26 598.40,92.80,13.26"/>
    </edge>
    <edge id=":AG1_6" function="internal">
        <lane id=":AG1_6_0" index="0" speed="6.51" length="9.03" shape="592.80,98.40,13.26 595.25,98.05,13.26 597.00,97.00,13.26 598.05,95.25,13.26 598.40,92.80,13.26"/>
    </edge>
    <edge id=":AG1_7" function="internal">
        <lane id=":AG1_7_0" index="0" speed="100.00" length="14.40" shape="592.80,98.40,13.26 607.20,98.40,13.26"/>
    </edge>
    <edge id=":AG1_8" function="internal">