<?xml version="1.0" encoding="UTF-8"?>

<!-- generated on 08/04/20 22:15:42 by Eclipse SUMO netgenerate Version 1.5.0
<configuration xmlns:xsi="http://www.w3.org/2001/XMLSchema-instance" xsi:noNamespaceSchemaLocation="http://sumo.dlr.de/xsd/netgenerateConfiguration.xsd">

    <grid_network>
        <grid value="true"/>
        <grid.x-number value="51"/>
        <grid.y-number value="2"/>
    </grid_network>

    <output>
        <output-file value="12.net.xml"/>
    </output>

    <processing>
        <perturb-z value="7"/>
    </processing>

    <building_defaults>
        <default.speed value="100"/>
    </building_defaults>

    <random_number>
        <seed value="964726590"/>
    </random_number>

</configuration>
-->

<net version="1.3" junctionCornerDetail="5" limitTurnSpeed="5.50" xmlns:xsi="http://www.w3.org/2001/XMLSchema-instance" xsi:noNamespaceSchemaLocation="http://sumo.dlr.de/xsd/net_file.xsd">

    <location netOffset="0.00,0.00" convBoundary="0.00,0.00,5000.00,100.00" origBoundary="0.00,0.00,5000.00,100.00" projParameter="!"/>

    <edge id=":AA0_0" function="internal">
        <lane id=":AA0_0_0" index="0" speed="6.08" length="7.74" shape="-1.60,3.20,0.69 -1.30,1.10,0.73 -0.40,-0.40,0.76 1.10,-1.30,0.79 3.20,-1.60,0.82"/>
    </edge>
    <edge id=":AA0_1" function="internal">
        <lane id=":AA0_1_0" index="0" speed="3.90" length="2.58" shape="3.20,1.60,0.84 2.50,1.70,0.80 2.00,2.00,0.76 1.70,2.50,0.73 1.60,3.20,0.69"/>
    </edge>
    <edge id=":AA1_0" function="internal">
        <lane id=":AA1_0_0" index="0" speed="6.08" length="7.74" shape="3.20,101.60,1.97 1.10,101.30,2.01 -0.40,100.40,2.05 -1.30,98.90,2.08 -1.60,96.80,2.12"/>
    </edge>
    <edge id=":AA1_1" function="internal">
        <lane id=":AA1_1_0" index="0" speed="3.90" length="2.58" shape="1.60,96.80,2.12 1.70,97.50,2.08 2.00,98.00,2.05 2.50,98.30,2.02 3.20,98.40,1.99"/>
    </edge>
    <edge id=":AB0_0" function="internal">
        <lane id=":AB0_0_0" index="0" speed="6.51" length="9.03" shape="98.40,7.20,6.39 98.05,4.75,6.39 97.00,3.00,6.39 95.25,1.95,6.39 92.80,1.60,6.39"/>
    </edge>
    <edge id=":AB0_1" function="internal">
        <lane id=":AB0_1_0" index="0" speed="8.00" length="14.19" shape="98.40,7.20,6.39 98.95,3.35,6.39 100.60,0.60,6.39 103.35,-1.05,6.39 107.20,-1.60,6.39"/>
    </edge>
    <edge id=":AB0_2" function="internal">
        <lane id=":AB0_2_0" index="0" speed="3.65" length="4.67" shape="98.40,7.20,6.39 99.20,6.00,6.39 100.00,5.60,6.39 100.80,6.00,6.39 101.60,7.20,6.39"/>
    </edge>
    <edge id=":AB0_3" function="internal">
        <lane id=":AB0_3_0" index="0" speed="6.51" length="9.03" shape="107.20,1.60,6.39 104.75,1.95,6.39 103.00,3.00,6.39 101.95,4.75,6.39 101.60,7.20,6.39"/>
    </edge>
    <edge id=":AB0_4" function="internal">
        <lane id=":AB0_4_0" index="0" speed="100.00" length="14.40" shape="107.20,1.60,6.39 92.80,1.60,6.39"/>
    </edge>
    <edge id=":AB0_5" function="internal">
        <lane id=":AB0_5_0" index="0" speed="3.65" length="2.34" shape="107.20,1.60,6.39 106.00,0.80,6.39 105.60,0.00,6.39"/>
    </edge>
    <edge id=":AB0_9" function="internal">
        <lane id=":AB0_9_0" index="0" speed="3.65" length="2.34" shape="105.60,0.00,6.39 106.00,-0.80,6.39 107.20,-1.60,6.39"/>
    </edge>
    <edge id=":AB0_6" function="internal">
        <lane id=":AB0_6_0" index="0" speed="100.00" length="14.40" shape="92.80,-1.60,6.39 107.20,-1.60,6.39"/>
    </edge>
    <edge id=":AB0_7" function="internal">
        <lane id=":AB0_7_0" index="0" speed="8.00" length="5.93" shape="92.80,-1.60,6.39 96.65,-1.05,6.39 98.40,-0.00,6.39"/>
    </edge>
    <edge id=":AB0_8" function="internal">
        <lane id=":AB0_8_0" index="0" speed="3.65" length="2.34" shape="92.80,-1.60,6.39 94.00,-0.80,6.39 94.40,0.00,6.39"/>
    </edge>
    <edge id=":AB0_10" function="internal">
        <lane id=":AB0_10_0" index="0" speed="8.00" length="8.26" shape="98.40,-0.00,6.39 99.40,0.60,6.39 101.05,3.35,6.39 101.60,7.20,6.39"/>
    </edge>
    <edge id=":AB0_11" function="internal">
        <lane id=":AB0_11_0" index="0" speed="3.65" length="2.34" shape="94.40,0.00,6.39 94.00,0.80,6.39 92.80,1.60,6.39"/>
    </edge>
    <edge id=":AB1_0" function="internal">
        <lane id=":AB1_0_0" index="0" speed="100.00" length="14.40" shape="107.20,101.60,-3.58 92.80,101.60,-3.58"/>
    </edge>
    <edge id=":AB1_1" function="internal">
        <lane id=":AB1_1_0" index="0" speed="8.00" length="5.93" shape="107.20,101.60,-3.58 103.35,101.05,-3.58 101.60,100.00,-3.58"/>
    </edge>
    <edge id=":AB1_2" function="internal">
        <lane id=":AB1_2_0" index="0" speed="3.65" length="2.34" shape="107.20,101.60,-3.58 106.00,100.80,-3.58 105.60,100.00,-3.58"/>
    </edge>
    <edge id=":AB1_9" function="internal">
        <lane id=":AB1_9_0" index="0" speed="8.00" length="8.26" shape="101.60,100.00,-3.58 100.60,99.40,-3.58 98.95,96.65,-3.58 98.40,92.80,-3.58"/>
    </edge>
    <edge id=":AB1_10" function="internal">
        <lane id=":AB1_10_0" index="0" speed="3.65" length="2.34" shape="105.60,100.00,-3.58 106.00,99.20,-3.58 107.20,98.40,-3.58"/>
    </edge>
    <edge id=":AB1_3" function="internal">
        <lane id=":AB1_3_0" index="0" speed="6.51" length="9.03" shape="101.60,92.80,-3.58 101.95,95.25,-3.58 103.00,97.00,-3.58 104.75,98.05,-3.58 107.20,98.40,-3.58"/>
    </edge>
    <edge id=":AB1_4" function="internal">
        <lane id=":AB1_4_0" index="0" speed="8.00" length="14.19" shape="101.60,92.80,-3.58 101.05,96.65,-3.58 99.40,99.40,-3.58 96.65,101.05,-3.58 92.80,101.60,-3.58"/>
    </edge>
    <edge id=":AB1_5" function="internal">
        <lane id=":AB1_5_0" index="0" speed="3.65" length="4.67" shape="101.60,92.80,-3.58 100.80,94.00,-3.58 100.00,94.40,-3.58 99.20,94.00,-3.58 98.40,92.80,-3.58"/>
    </edge>
    <edge id=":AB1_6" function="internal">
        <lane id=":AB1_6_0" index="0" speed="6.51" length="9.03" shape="92.80,98.40,-3.58 95.25,98.05,-3.58 97.00,97.00,-3.58 98.05,95.25,-3.58 98.40,92.80,-3.58"/>
    </edge>
    <edge id=":AB1_7" function="internal">
        <lane id=":AB1_7_0" index="0" speed="100.00" length="14.40" shape="92.80,98.40,-3.58 107.20,98.40,-3.58"/>
    </edge>
    <edge id=":AB1_8" function="internal">
        <lane id=":AB1_8_0" index="0" speed="3.65" length="2.34" shape="92.80,98.40,-3.58 94.00,99.20,-3.58 94.40,100.00,-3.58"/>
    </edge>
    <edge id=":AB1_11" function="internal">
        <lane id=":AB1_11_0" index="0" speed="3.65" length="2.34" shape="94.40,100.00,-3.58 94.00,100.80,-3.58 92.80,101.60,-3.58"/>
    </edge>
    <edge id=":AC0_0" function="internal">
        <lane id=":AC0_0_0" index="0" speed="6.51" length="9.03" shape="198.40,7.20,2.96 198.05,4.75,2.98 197.00,3.00,2.99 195.25,1.95,3.00 192.80,1.60,3.01"/>
    </edge>
    <edge id=":AC0_1" function="internal">
        <lane id=":AC0_1_0" index="0" speed="8.00" length="14.19" shape="198.40,7.20,2.96 198.95,3.35,2.98 200.60,0.60,2.99 203.35,-1.05,3.00 207.20,-1.60,3.01"/>
    </edge>
    <edge id=":AC0_2" function="internal">
        <lane id=":AC0_2_0" index="0" speed="3.65" length="4.67" shape="198.40,7.20,2.96 199.20,6.00,2.96 200.00,5.60,2.96 200.80,6.00,2.96 201.60,7.20,2.96"/>
    </edge>
    <edge id=":AC0_3" function="internal">
        <lane id=":AC0_3_0" index="0" speed="6.51" length="9.03" shape="207.20,1.60,3.01 204.75,1.95,3.00 203.00,3.00,2.99 201.95,4.75,2.98 201.60,7.20,2.96"/>
    </edge>
    <edge id=":AC0_4" function="internal">
        <lane id=":AC0_4_0" index="0" speed="100.00" length="14.40" shape="207.20,1.60,3.01 192.80,1.60,3.01"/>
    </edge>
    <edge id=":AC0_5" function="internal">
        <lane id=":AC0_5_0" index="0" speed="3.65" length="2.34" shape="207.20,1.60,3.01 206.00,0.80,3.01 205.60,0.00,3.01"/>
    </edge>
    <edge id=":AC0_9" function="internal">
        <lane id=":AC0_9_0" index="0" speed="3.65" length="2.34" shape="205.60,0.00,3.01 206.00,-0.80,3.01 207.20,-1.60,3.01"/>
    </edge>
    <edge id=":AC0_6" function="internal">
        <lane id=":AC0_6_0" index="0" speed="100.00" length="14.40" shape="192.80,-1.60,3.01 207.20,-1.60,3.01"/>
    </edge>
    <edge id=":AC0_7" function="internal">
        <lane id=":AC0_7_0" index="0" speed="8.00" length="5.93" shape="192.80,-1.60,3.01 196.65,-1.05,3.00 198.40,-0.00,2.99"/>
    </edge>
    <edge id=":AC0_8" function="internal">
        <lane id=":AC0_8_0" index="0" speed="3.65" length="2.34" shape="192.80,-1.60,3.01 194.00,-0.80,3.01 194.40,0.00,3.01"/>
    </edge>
    <edge id=":AC0_10" function="internal">
        <lane id=":AC0_10_0" index="0" speed="8.00" length="8.26" shape="198.40,-0.00,2.99 199.40,0.60,2.99 201.05,3.35,2.98 201.60,7.20,2.96"/>
    </edge>
    <edge id=":AC0_11" function="internal">
        <lane id=":AC0_11_0" index="0" speed="3.65" length="2.34" shape="194.40,0.00,3.01 194.00,0.80,3.01 192.80,1.60,3.01"/>
    </edge>
    <edge id=":AC1_0" function="internal">
        <lane id=":AC1_0_0" index="0" speed="100.00" length="14.40" shape="207.20,101.60,2.36 192.80,101.60,2.36"/>
    </edge>
    <edge id=":AC1_1" function="internal">
        <lane id=":AC1_1_0" index="0" speed="8.00" length="5.93" shape="207.20,101.60,2.36 203.35,101.05,2.37 201.60,100.00,2.38"/>
    </edge>
    <edge id=":AC1_2" function="internal">
        <lane id=":AC1_2_0" index="0" speed="3.65" length="2.34" shape="207.20,101.60,2.36 206.00,100.80,2.36 205.60,100.00,2.36"/>
    </edge>
    <edge id=":AC1_9" function="internal">
        <lane id=":AC1_9_0" index="0" speed="8.00" length="8.26" shape="201.60,100.00,2.38 200.60,99.40,2.38 198.95,96.65,2.40 198.40,92.80,2.41"/>
    </edge>
    <edge id=":AC1_10" function="internal">
        <lane id=":AC1_10_0" index="0" speed="3.65" length="2.34" shape="205.60,100.00,2.36 206.00,99.20,2.36 207.20,98.40,2.36"/>
    </edge>
    <edge id=":AC1_3" function="internal">
        <lane id=":AC1_3_0" index="0" speed="6.51" length="9.03" shape="201.60,92.80,2.41 201.95,95.25,2.40 203.00,97.00,2.38 204.75,98.05,2.37 207.20,98.40,2.36"/>
    </edge>
    <edge id=":AC1_4" function="internal">
        <lane id=":AC1_4_0" index="0" speed="8.00" length="14.19" shape="201.60,92.80,2.41 201.05,96.65,2.40 199.40,99.40,2.38 196.65,101.05,2.37 192.80,101.60,2.36"/>
    </edge>
    <edge id=":AC1_5" function="internal">
        <lane id=":AC1_5_0" index="0" speed="3.65" length="4.67" shape="201.60,92.80,2.41 200.80,94.00,2.41 200.00,94.40,2.41 199.20,94.00,2.41 198.40,92.80,2.41"/>
    </edge>
    <edge id=":AC1_6" function="internal">
        <lane id=":AC1_6_0" index="0" speed="6.51" length="9.03" shape="192.80,98.40,2.36 195.25,98.05,2.37 197.00,97.00,2.38 198.05,95.25,2.40 198.40,92.80,2.41"/>
    </edge>
    <edge id=":AC1_7" function="internal">
        <lane id=":AC1_7_0" index="0" speed="100.00" length="14.40" shape="192.80,98.40,2.36 207.20,98.40,2.36"/>
    </edge>
    <edge id=":AC1_8" function="internal">
        <lane id=":AC1_8_0" index="0" speed="3.65" length="2.34" shape="192.80,98.40,2.36 194.00,99.20,2.36 194.40,100.00,2.36"/>
    </edge>
    <edge id=":AC1_11" function="internal">
        <lane id=":AC1_11_0" index="0" speed="3.65" length="2.34" shape="194.40,100.00,2.36 194.00,100.80,2.36 192.80,101.60,2.36"/>
    </edge>
    <edge id=":AD0_0" function="internal">
        <lane id=":AD0_0_0" index="0" speed="6.51" length="9.03" shape="298.40,7.20,-4.94 298.05,4.75,-4.92 297.00,3.00,-4.90 295.25,1.95,-4.89 292.80,1.60,-4.87"/>
    </edge>
    <edge id=":AD0_1" function="internal">
        <lane id=":AD0_1_0" index="0" speed="8.00" length="14.19" shape="298.40,7.20,-4.94 298.95,3.35,-4.92 300.60,0.60,-4.90 303.35,-1.05,-4.89 307.20,-1.60,-4.87"/>
    </edge>
    <edge id=":AD0_2" function="internal">
        <lane id=":AD0_2_0" index="0" speed="3.65" length="4.67" shape="298.40,7.20,-4.94 299.20,6.00,-4.94 300.00,5.60,-4.94 300.80,6.00,-4.94 301.60,7.20,-4.94"/>
    </edge>
    <edge id=":AD0_3" function="internal">
        <lane id=":AD0_3_0" index="0" speed="6.51" length="9.03" shape="307.20,1.60,-4.87 304.75,1.95,-4.89 303.00,3.00,-4.90 301.95,4.75,-4.92 301.60,7.20,-4.94"/>
    </edge>
    <edge id=":AD0_4" function="internal">
        <lane id=":AD0_4_0" index="0" speed="100.00" length="14.40" shape="307.20,1.60,-4.87 292.80,1.60,-4.87"/>
    </edge>
    <edge id=":AD0_5" function="internal">
        <lane id=":AD0_5_0" index="0" speed="3.65" length="2.34" shape="307.20,1.60,-4.87 306.00,0.80,-4.87 305.60,0.00,-4.87"/>
    </edge>
    <edge id=":AD0_9" function="internal">
        <lane id=":AD0_9_0" index="0" speed="3.65" length="2.34" shape="305.60,0.00,-4.87 306.00,-0.80,-4.87 307.20,-1.60,-4.87"/>
    </edge>
    <edge id=":AD0_6" function="internal">
        <lane id=":AD0_6_0" index="0" speed="100.00" length="14.40" shape="292.80,-1.60,-4.87 307.20,-1.60,-4.87"/>
    </edge>
    <edge id=":AD0_7" function="internal">
        <lane id=":AD0_7_0" index="0" speed="8.00" length="5.93" shape="292.80,-1.60,-4.87 296.65,-1.05,-4.89 298.40,-0.00,-4.90"/>
    </edge>
    <edge id=":AD0_8" function="internal">
        <lane id=":AD0_8_0" index="0" speed="3.65" length="2.34" shape="292.80,-1.60,-4.87 294.00,-0.80,-4.87 294.40,0.00,-4.87"/>
    </edge>
    <edge id=":AD0_10" function="internal">
        <lane id=":AD0_10_0" index="0" speed="8.00" length="8.26" shape="298.40,-0.00,-4.90 299.40,0.60,-4.90 301.05,3.35,-4.92 301.60,7.20,-4.94"/>
    </edge>
    <edge id=":AD0_11" function="internal">
        <lane id=":AD0_11_0" index="0" speed="3.65" length="2.34" shape="294.40,0.00,-4.87 294.00,0.80,-4.87 292.80,1.60,-4.87"/>
    </edge>
    <edge id=":AD1_0" function="internal">
        <lane id=":AD1_0_0" index="0" speed="100.00" length="14.40" shape="307.20,101.60,-5.69 292.80,101.60,-5.84"/>
    </edge>
    <edge id=":AD1_1" function="internal">
        <lane id=":AD1_1_0" index="0" speed="8.00" length="5.93" shape="307.20,101.60,-5.69 303.35,101.05,-5.71 301.60,100.00,-5.73"/>
    </edge>
    <edge id=":AD1_2" function="internal">
        <lane id=":AD1_2_0" index="0" speed="3.65" length="2.34" shape="307.20,101.60,-5.69 306.00,100.80,-5.69 305.60,100.00,-5.69"/>
    </edge>
    <edge id=":AD1_9" function="internal">
        <lane id=":AD1_9_0" index="0" speed="8.00" length="8.26" shape="301.60,100.00,-5.73 300.60,99.40,-5.73 298.95,96.65,-5.75 298.40,92.80,-5.77"/>
    </edge>
    <edge id=":AD1_10" function="internal">
        <lane id=":AD1_10_0" index="0" speed="3.65" length="2.34" shape="305.60,100.00,-5.69 306.00,99.20,-5.69 307.20,98.40,-5.69"/>
    </edge>
    <edge id=":AD1_3" function="internal">
        <lane id=":AD1_3_0" index="0" speed="6.51" length="9.03" shape="301.60,92.80,-5.77 301.95,95.25,-5.75 303.00,97.00,-5.73 304.75,98.05,-5.71 307.20,98.40,-5.69"/>
    </edge>
    <edge id=":AD1_4" function="internal">
        <lane id=":AD1_4_0" index="0" speed="8.00" length="14.19" shape="301.60,92.80,-5.77 301.05,96.65,-5.79 299.40,99.40,-5.81 296.65,101.05,-5.82 292.80,101.60,-5.84"/>
    </edge>
    <edge id=":AD1_5" function="internal">
        <lane id=":AD1_5_0" index="0" speed="3.65" length="4.67" shape="301.60,92.80,-5.77 300.80,94.00,-5.77 300.00,94.40,-5.77 299.20,94.00,-5.77 298.40,92.80,-5.77"/>
    </edge>
    <edge id=":AD1_6" function="internal">
        <lane id=":AD1_6_0" index="0" speed="6.51" length="9.03" shape="292.80,98.40,-5.84 295.25,98.05,-5.82 297.00,97.00,-5.81 298.05,95.25,-5.79 298.40,92.80,-5.77"/>
    </edge>
    <edge id=":AD1_7" function="internal">
        <lane id=":AD1_7_0" index="0" speed="100.00" length="14.40" shape="292.80,98.40,-5.84 307.20,98.40,-5.69"/>
    </edge>
    <edge id=":AD1_8" function="internal">
        <lane id=":AD1_8_0" index="0" speed="3.65" length="2.34" shape="292.80,98.40,-5.84 294.00,99.20,-5.84 294.40,100.00,-5.84"/>
    </edge>
    <edge id=":AD1_11" function="internal">
        <lane id=":AD1_11_0" index="0" speed="3.65" length="2.34" shape="294.40,100.00,-5.84 294.00,100.80,-5.84 292.80,101.60,-5.84"/>
    </edge>
    <edge id=":AE0_0" function="internal">
        <lane id=":AE0_0_0" index="0" speed="6.51" length="9.03" shape="398.40,7.20,-7.71 398.05,4.75,-7.71 397.00,3.00,-7.71 395.25,1.95,-7.71 392.80,1.60,-7.71"/>
    </edge>
    <edge id=":AE0_1" function="internal">
        <lane id=":AE0_1_0" index="0" speed="8.00" length="14.19" shape="398.40,7.20,-7.71 398.95,3.35,-7.71 400.60,0.60,-7.71 403.35,-1.05,-7.71 407.20,-1.60,-7.71"/>
    </edge>
    <edge id=":AE0_2" function="internal">
        <lane id=":AE0_2_0" index="0" speed="3.65" length="4.67" shape="398.40,7.20,-7.71 399.20,6.00,-7.71 400.00,5.60,-7.71 400.80,6.00,-7.71 401.60,7.20,-7.71"/>
    </edge>
    <edge id=":AE0_3" function="internal">
        <lane id=":AE0_3_0" index="0" speed="6.51" length="9.03" shape="407.20,1.60,-7.71 404.75,1.95,-7.71 403.00,3.00,-7.71 401.95,4.75,-7.71 401.60,7.20,-7.71"/>
    </edge>
    <edge id=":AE0_4" function="internal">
        <lane id=":AE0_4_0" index="0" speed="100.00" length="14.40" shape="407.20,1.60,-7.71 392.80,1.60,-7.71"/>
    </edge>
    <edge id=":AE0_5" function="internal">
        <lane id=":AE0_5_0" index="0" speed="3.65" length="2.34" shape="407.20,1.60,-7.71 406.00,0.80,-7.71 405.60,0.00,-7.71"/>
    </edge>
    <edge id=":AE0_9" function="internal">
        <lane id=":AE0_9_0" index="0" speed="3.65" length="2.34" shape="405.60,0.00,-7.71 406.00,-0.80,-7.71 407.20,-1.60,-7.71"/>
    </edge>
    <edge id=":AE0_6" function="internal">
        <lane id=":AE0_6_0" index="0" speed="100.00" length="14.40" shape="392.80,-1.60,-7.71 407.20,-1.60,-7.71"/>
    </edge>
    <edge id=":AE0_7" function="internal">
        <lane id=":AE0_7_0" index="0" speed="8.00" length="5.93" shape="392.80,-1.60,-7.71 396.65,-1.05,-7.71 398.40,-0.00,-7.71"/>
    </edge>
    <edge id=":AE0_8" function="internal">
        <lane id=":AE0_8_0" index="0" speed="3.65" length="2.34" shape="392.80,-1.60,-7.71 394.00,-0.80,-7.71 394.40,0.00,-7.71"/>
    </edge>
    <edge id=":AE0_10" function="internal">
        <lane id=":AE0_10_0" index="0" speed="8.00" length="8.26" shape="398.40,-0.00,-7.71 399.40,0.60,-7.71 401.05,3.35,-7.71 401.60,7.20,-7.71"/>
    </edge>
    <edge id=":AE0_11" function="internal">
        <lane id=":AE0_11_0" index="0" speed="3.65" length="2.34" shape="394.40,0.00,-7.71 394.00,0.80,-7.71 392.80,1.60,-7.71"/>
    </edge>
    <edge id=":AE1_0" function="internal">
        <lane id=":AE1_0_0" index="0" speed="100.00" length="14.40" shape="407.20,101.60,-3.79 392.80,101.60,-3.93"/>
    </edge>
    <edge id=":AE1_1" function="internal">
        <lane id=":AE1_1_0" index="0" speed="8.00" length="5.93" shape="407.20,101.60,-3.79 403.35,101.05,-3.79 401.60,100.00,-3.79"/>
    </edge>
    <edge id=":AE1_2" function="internal">
        <lane id=":AE1_2_0" index="0" speed="3.65" length="2.34" shape="407.20,101.60,-3.79 406.00,100.80,-3.79 405.60,100.00,-3.79"/>
    </edge>
    <edge id=":AE1_9" function="internal">
        <lane id=":AE1_9_0" index="0" speed="8.00" length="8.26" shape="401.60,100.00,-3.79 400.60,99.40,-3.79 398.95,96.65,-3.79 398.40,92.80,-3.79"/>
    </edge>
    <edge id=":AE1_10" function="internal">
        <lane id=":AE1_10_0" index="0" speed="3.65" length="2.34" shape="405.60,100.00,-3.79 406.00,99.20,-3.79 407.20,98.40,-3.79"/>
    </edge>
    <edge id=":AE1_3" function="internal">
        <lane id=":AE1_3_0" index="0" speed="6.51" length="9.03" shape="401.60,92.80,-3.79 401.95,95.25,-3.79 403.00,97.00,-3.79 404.75,98.05,-3.79 407.20,98.40,-3.79"/>
    </edge>
    <edge id=":AE1_4" function="internal">
        <lane id=":AE1_4_0" index="0" speed="8.00" length="14.19" shape="401.60,92.80,-3.79 401.05,96.65,-3.83 399.40,99.40,-3.86 396.65,101.05,-3.89 392.80,101.60,-3.93"/>
    </edge>
    <edge id=":AE1_5" function="internal">
        <lane id=":AE1_5_0" index="0" speed="3.65" length="4.67" shape="401.60,92.80,-3.79 400.80,94.00,-3.79 400.00,94.40,-3.79 399.20,94.00,-3.79 398.40,92.80,-3.79"/>
    </edge>
    <edge id=":AE1_6" function="internal">
        <lane id=":AE1_6_0" index="0" speed="6.51" length="9.03" shape="392.80,98.40,-3.93 395.25,98.05,-3.89 397.00,97.00,-3.86 398.05,95.25,-3.83 398.40,92.80,-3.79"/>
    </edge>
    <edge id=":AE1_7" function="internal">
        <lane id=":AE1_7_0" index="0" speed="100.00" length="14.40" shape="392.80,98.40,-3.93 407.20,98.40,-3.79"/>
    </edge>
    <edge id=":AE1_8" function="internal">
        <lane id=":AE1_8_0" index="0" speed="3.65" length="2.34" shape="392.80,98.40,-3.93 394.00,99.20,-3.93 394.40,100.00,-3.93"/>
    </edge>
    <edge id=":AE1_11" function="internal">
        <lane id=":AE1_11_0" index="0" speed="3.65" length="2.34" shape="394.40,100.00,-3.93 394.00,100.80,-3.93 392.80,101.60,-3.93"/>
    </edge>
    <edge id=":AF0_0" function="internal">
        <lane id=":AF0_0_0" index="0" speed="6.51" length="9.03" shape="498.40,7.20,1.46 498.05,4.75,1.46 497.00,3.00,1.46 495.25,1.95,1.46 492.80,1.60,1.46"/>
    </edge>
    <edge id=":AF0_1" function="internal">
        <lane id=":AF0_1_0" index="0" speed="8.00" length="14.19" shape="498.40,7.20,1.46 498.95,3.35,1.46 500.60,0.60,1.46 503.35,-1.05,1.46 507.20,-1.60,1.46"/>
    </edge>
    <edge id=":AF0_2" function="internal">
        <lane id=":AF0_2_0" index="0" speed="3.65" length="4.67" shape="498.40,7.20,1.46 499.20,6.00,1.46 500.00,5.60,1.46 500.80,6.00,1.46 501.60,7.20,1.46"/>
    </edge>
    <edge id=":AF0_3" function="internal">
        <lane id=":AF0_3_0" index="0" speed="6.51" length="9.03" shape="507.20,1.60,1.46 504.75,1.95,1.46 503.00,3.00,1.46 501.95,4.75,1.46 501.60,7.20,1.46"/>
    </edge>
    <edge id=":AF0_4" function="internal">
        <lane id=":AF0_4_0" index="0" speed="100.00" length="14.40" shape="507.20,1.60,1.46 492.80,1.60,1.46"/>
    </edge>
    <edge id=":AF0_5" function="internal">
        <lane id=":AF0_5_0" index="0" speed="3.65" length="2.34" shape="507.20,1.60,1.46 506.00,0.80,1.46 505.60,0.00,1.46"/>
    </edge>
    <edge id=":AF0_9" function="internal">
        <lane id=":AF0_9_0" index="0" speed="3.65" length="2.34" shape="505.60,0.00,1.46 506.00,-0.80,1.46 507.20,-1.60,1.46"/>
    </edge>
    <edge id=":AF0_6" function="internal">
        <lane id=":AF0_6_0" index="0" speed="100.00" length="14.40" shape="492.80,-1.60,1.46 507.20,-1.60,1.46"/>
    </edge>
    <edge id=":AF0_7" function="internal">
        <lane id=":AF0_7_0" index="0" speed="8.00" length="5.93" shape="492.80,-1.60,1.46 496.65,-1.05,1.46 498.40,-0.00,1.46"/>
    </edge>
    <edge id=":AF0_8" function="internal">
        <lane id=":AF0_8_0" index="0" speed="3.65" length="2.34" shape="492.80,-1.60,1.46 494.00,-0.80,1.46 494.40,0.00,1.46"/>
    </edge>
    <edge id=":AF0_10" function="internal">
        <lane id=":AF0_10_0" index="0" speed="8.00" length="8.26" shape="498.40,-0.00,1.46 499.40,0.60,1.46 501.05,3.35,1.46 501.60,7.20,1.46"/>
    </edge>
    <edge id=":AF0_11" function="internal">
        <lane id=":AF0_11_0" index="0" speed="3.65" length="2.34" shape="494.40,0.00,1.46 494.00,0.80,1.46 492.80,1.60,1.46"/>
    </edge>
    <edge id=":AF1_0" function="internal">
        <lane id=":AF1_0_0" index="0" speed="100.00" length="14.40" shape="507.20,101.60,-6.79 492.80,101.60,-6.79"/>
    </edge>
    <edge id=":AF1_1" function="internal">
        <lane id=":AF1_1_0" index="0" speed="8.00" length="5.93" shape="507.20,101.60,-6.79 503.35,101.05,-6.79 501.60,100.00,-6.79"/>
    </edge>
    <edge id=":AF1_2" function="internal">
        <lane id=":AF1_2_0" index="0" speed="3.65" length="2.34" shape="507.20,101.60,-6.79 506.00,100.80,-6.79 505.60,100.00,-6.79"/>
    </edge>
    <edge id=":AF1_9" function="internal">
        <lane id=":AF1_9_0" index="0" speed="8.00" length="8.26" shape="501.60,100.00,-6.79 500.60,99.40,-6.79 498.95,96.65,-6.79 498.40,92.80,-6.79"/>
    </edge>
    <edge id=":AF1_10" function="internal">
        <lane id=":AF1_10_0" index="0" speed="3.65" length="2.34" shape="505.60,100.00,-6.79 506.00,99.20,-6.79 507.20,98.40,-6.79"/>
    </edge>
    <edge id=":AF1_3" function="internal">
        <lane id=":AF1_3_0" index="0" speed="6.51" length="9.03" shape="501.60,92.80,-6.79 501.95,95.25,-6.79 503.00,97.00,-6.79 504.75,98.05,-6.79 507.20,98.40,-6.79"/>
    </edge>
    <edge id=":AF1_4" function="internal">
        <lane id=":AF1_4_0" index="0" speed="8.00" length="14.19" shape="501.60,92.80,-6.79 501.05,96.65,-6.79 499.40,99.40,-6.79 496.65,101.05,-6.79 492.80,101.60,-6.79"/>
    </edge>
    <edge id=":AF1_5" function="internal">
        <lane id=":AF1_5_0" index="0" speed="3.65" length="4.67" shape="501.60,92.80,-6.79 500.80,94.00,-6.79 500.00,94.40,-6.79 499.20,94.00,-6.79 498.40,92.80,-6.79"/>
    </edge>
    <edge id=":AF1_6" function="internal">
        <lane id=":AF1_6_0" index="0" speed="6.51" length="9.03" shape="492.80,98.40,-6.79 495.25,98.05,-6.79 497.00,97.00,-6.79 498.05,95.25,-6.79 498.40,92.80,-6.79"/>
    </edge>
    <edge id=":AF1_7" function="internal">
        <lane id=":AF1_7_0" index="0" speed="100.00" length="14.40" shape="492.80,98.40,-6.79 507.20,98.40,-6.79"/>
    </edge>
    <edge id=":AF1_8" function="internal">
        <lane id=":AF1_8_0" index="0" speed="3.65" length="2.34" shape="492.80,98.40,-6.79 494.00,99.20,-6.79 494.40,100.00,-6.79"/>
    </edge>
    <edge id=":AF1_11" function="internal">
        <lane id=":AF1_11_0" index="0" speed="3.65" length="2.34" shape="494.40,100.00,-6.79 494.00,100.80,-6.79 492.80,101.60,-6.79"/>
    </edge>
    <edge id=":AG0_0" function="internal">
        <lane id=":AG0_0_0" index="0" speed="6.51" length="9.03" shape="598.40,7.20,-8.57 598.05,4.75,-8.57 597.00,3.00,-8.57 595.25,1.95,-8.57 592.80,1.60,-8.57"/>
    </edge>
    <edge id=":AG0_1" function="internal">
        <lane id=":AG0_1_0" index="0" speed="8.00" length="14.19" shape="598.40,7.20,-8.57 598.95,3.35,-8.57 600.60,0.60,-8.57 603.35,-1.05,-8.57 607.20,-1.60,-8.57"/>
    </edge>
    <edge id=":AG0_2" function="internal">
        <lane id=":AG0_2_0" index="0" speed="3.65" length="4.67" shape="598.40,7.20,-8.57 599.20,6.00,-8.57 600.00,5.60,-8.57 600.80,6.00,-8.57 601.60,7.20,-8.57"/>
    </edge>
    <edge id=":AG0_3" function="internal">
        <lane id=":AG0_3_0" index="0" speed="6.51" length="9.03" shape="607.20,1.60,-8.57 604.75,1.95,-8.57 603.00,3.00,-8.57 601.95,4.75,-8.57 601.60,7.20,-8.57"/>
    </edge>
    <edge id=":AG0_4" function="internal">
        <lane id=":AG0_4_0" index="0" speed="100.00" length="14.40" shape="607.20,1.60,-8.57 592.80,1.60,-8.57"/>
    </edge>
    <edge id=":AG0_5" function="internal">
        <lane id=":AG0_5_0" index="0" speed="3.65" length="2.34" shape="607.20,1.60,-8.57 606.00,0.80,-8.57 605.60,0.00,-8.57"/>
    </edge>
    <edge id=":AG0_9" function="internal">
        <lane id=":AG0_9_0" index="0" speed="3.65" length="2.34" shape="605.60,0.00,-8.57 606.00,-0.80,-8.57 607.20,-1.60,-8.57"/>
    </edge>
    <edge id=":AG0_6" function="internal">
        <lane id=":AG0_6_0" index="0" speed="100.00" length="14.40" shape="592.80,-1.60,-8.57 607.20,-1.60,-8.57"/>
    </edge>
    <edge id=":AG0_7" function="internal">
        <lane id=":AG0_7_0" index="0" speed="8.00" length="5.93" shape="592.80,-1.60,-8.57 596.65,-1.05,-8.57 598.40,0.00,-8.57"/>
    </edge>
    <edge id=":AG0_8" function="internal">
        <lane id=":AG0_8_0" index="0" speed="3.65" length="2.34" shape="592.80,-1.60,-8.57 594.00,-0.80,-8.57 594.40,0.00,-8.57"/>
    </edge>
    <edge id=":AG0_10" function="internal">
        <lane id=":AG0_10_0" index="0" speed="8.00" length="8.26" shape="598.40,0.00,-8.57 599.40,0.60,-8.57 601.05,3.35,-8.57 601.60,7.20,-8.57"/>
    </edge>
    <edge id=":AG0_11" function="internal">
        <lane id=":AG0_11_0" index="0" speed="3.65" length="2.34" shape="594.40,0.00,-8.57 594.00,0.80,-8.57 592.80,1.60,-8.57"/>
    </edge>
    <edge id=":AG1_0" function="internal">
        <lane id=":AG1_0_0" index="0" speed="100.00" length="14.40" shape="607.20,101.60,4.58 592.80,101.60,4.47"/>
    </edge>
    <edge id=":AG1_1" function="internal">
        <lane id=":AG1_1_0" index="0" speed="8.00" length="5.93" shape="607.20,101.60,4.58 603.35,101.05,4.55 601.60,100.00,4.54"/>
    </edge>
    <edge id=":AG1_2" function="internal">
        <lane id=":AG1_2_0" index="0" speed="3.65" length="2.34" shape="607.20,101.60,4.58 606.00,100.80,4.58 605.60,100.00,4.58"/>
    </edge>
    <edge id=":AG1_9" function="internal">
        <lane id=":AG1_9_0" index="0" speed="8.00" length="8.26" shape="601.60,100.00,4.54 600.60,99.40,4.53 598.95,96.65,4.50 598.40,92.80,4.47"/>
    </edge>
    <edge id=":AG1_10" function="internal">
        <lane id=":AG1_10_0" index="0" speed="3.65" length="2.34" shape="605.60,100.00,4.58 606.00,99.20,4.58 607.20,98.40,4.58"/>
    </edge>
    <edge id=":AG1_3" function="internal">
        <lane id=":AG1_3_0" index="0" speed="6.51" length="9.03" shape="601.60,92.80,4.47 601.95,95.25,4.50 603.00,97.00,4.53 604.75,98.05,4.55 607.20,98.40,4.58"/>
    </edge>
    <edge id=":AG1_4" function="internal">
        <lane id=":AG1_4_0" index="0" speed="8.00" length="14.19" shape="601.60,92.80,4.47 601.05,96.65,4.47 599.40,99.40,4.47 596.65,101.05,4.47 592.80,101.60,4.47"/>
    </edge>
    <edge id=":AG1_5" function="internal">
        <lane id=":AG1_5_0" index="0" speed="3.65" length="4.67" shape="601.60,92.80,4.47 600.80,94.00,4.47 600.00,94.40,4.47 599.20,94.00,4.47 598.40,92.80,4.47"/>
    </edge>
    <edge id=":AG1_6" function="internal">
        <lane id=":AG1_6_0" index="0" speed="6.51" length="9.03" shape="592.80,98.40,4.47 595.25,98.05,4.47 597.00,97.00,4.47 598.05,95.25,4.47 598.40,92.80,4.47"/>
    </edge>
    <edge id=":AG1_7" function="internal">
        <lane id=":AG1_7_0" index="0" speed="100.00" length="14.40" shape="592.80,98.40,4.47 607.20,98.40,4.58"/>
    </edge>
    <edge id=":AG1_8" function="internal">