<?xml version="1.0" encoding="UTF-8"?>

<!-- generated on 08/01/20 19:35:15 by Eclipse SUMO netgenerate Version 1.5.0
<configuration xmlns:xsi="http://www.w3.org/2001/XMLSchema-instance" xsi:noNamespaceSchemaLocation="http://sumo.dlr.de/xsd/netgenerateConfiguration.xsd">

    <grid_network>
        <grid value="true"/>
        <grid.x-number value="41"/>
        <grid.y-number value="2"/>
    </grid_network>

    <output>
        <output-file value="20.net.xml"/>
    </output>

    <processing>
        <perturb-z value="25"/>
    </processing>

    <building_defaults>
        <default.speed value="100"/>
    </building_defaults>

    <random_number>
        <seed value="946662148"/>
    </random_number>

</configuration>
-->

<net version="1.3" junctionCornerDetail="5" limitTurnSpeed="5.50" xmlns:xsi="http://www.w3.org/2001/XMLSchema-instance" xsi:noNamespaceSchemaLocation="http://sumo.dlr.de/xsd/net_file.xsd">

    <location netOffset="0.00,0.00" convBoundary="0.00,0.00,4000.00,100.00" origBoundary="0.00,0.00,4000.00,100.00" projParameter="!"/>

    <edge id=":AA0_0" function="internal">
        <lane id=":AA0_0_0" index="0" speed="6.08" length="7.99" shape="-1.60,3.20,21.92 -1.30,1.10,21.38 -0.40,-0.40,20.93 1.10,-1.30,20.48 3.20,-1.60,19.94"/>
    </edge>
    <edge id=":AA0_1" function="internal">
        <lane id=":AA0_1_0" index="0" speed="3.90" length="3.35" shape="3.20,1.60,19.79 2.50,1.70,20.37 2.00,2.00,20.85 1.70,2.50,21.33 1.60,3.20,21.92"/>
    </edge>
    <edge id=":AA1_0" function="internal">
        <lane id=":AA1_0_0" index="0" speed="6.08" length="7.76" shape="3.20,101.60,22.39 1.10,101.30,22.26 -0.40,100.40,22.15 -1.30,98.90,22.04 -1.60,96.80,21.90"/>
    </edge>
    <edge id=":AA1_1" function="internal">
        <lane id=":AA1_1_0" index="0" speed="3.90" length="2.62" shape="1.60,96.80,21.90 1.70,97.50,22.03 2.00,98.00,22.13 2.50,98.30,22.23 3.20,98.40,22.35"/>
    </edge>
    <edge id=":AB0_0" function="internal">
        <lane id=":AB0_0_0" index="0" speed="6.51" length="9.03" shape="98.40,7.20,-39.88 98.05,4.75,-39.88 97.00,3.00,-39.88 95.25,1.95,-39.88 92.80,1.60,-39.88"/>
    </edge>
    <edge id=":AB0_1" function="internal">
        <lane id=":AB0_1_0" index="0" speed="8.00" length="14.19" shape="98.40,7.20,-39.88 98.95,3.35,-39.88 100.60,0.60,-39.88 103.35,-1.05,-39.88 107.20,-1.60,-39.88"/>
    </edge>
    <edge id=":AB0_2" function="internal">
        <lane id=":AB0_2_0" index="0" speed="3.65" length="4.67" shape="98.40,7.20,-39.88 99.20,6.00,-39.88 100.00,5.60,-39.88 100.80,6.00,-39.88 101.60,7.20,-39.88"/>
    </edge>
    <edge id=":AB0_3" function="internal">
        <lane id=":AB0_3_0" index="0" speed="6.51" length="9.03" shape="107.20,1.60,-39.88 104.75,1.95,-39.88 103.00,3.00,-39.88 101.95,4.75,-39.88 101.60,7.20,-39.88"/>
    </edge>
    <edge id=":AB0_4" function="internal">
        <lane id=":AB0_4_0" index="0" speed="100.00" length="14.40" shape="107.20,1.60,-39.88 92.80,1.60,-39.88"/>
    </edge>
    <edge id=":AB0_5" function="internal">
        <lane id=":AB0_5_0" index="0" speed="3.65" length="2.34" shape="107.20,1.60,-39.88 106.00,0.80,-39.88 105.60,0.00,-39.88"/>
    </edge>
    <edge id=":AB0_9" function="internal">
        <lane id=":AB0_9_0" index="0" speed="3.65" length="2.34" shape="105.60,0.00,-39.88 106.00,-0.80,-39.88 107.20,-1.60,-39.88"/>
    </edge>
    <edge id=":AB0_6" function="internal">
        <lane id=":AB0_6_0" index="0" speed="100.00" length="14.40" shape="92.80,-1.60,-39.88 107.20,-1.60,-39.88"/>
    </edge>
    <edge id=":AB0_7" function="internal">
        <lane id=":AB0_7_0" index="0" speed="8.00" length="5.93" shape="92.80,-1.60,-39.88 96.65,-1.05,-39.88 98.40,0.00,-39.88"/>
    </edge>
    <edge id=":AB0_8" function="internal">
        <lane id=":AB0_8_0" index="0" speed="3.65" length="2.34" shape="92.80,-1.60,-39.88 94.00,-0.80,-39.88 94.40,0.00,-39.88"/>
    </edge>
    <edge id=":AB0_10" function="internal">
        <lane id=":AB0_10_0" index="0" speed="8.00" length="8.26" shape="98.40,0.00,-39.88 99.40,0.60,-39.88 101.05,3.35,-39.88 101.60,7.20,-39.88"/>
    </edge>
    <edge id=":AB0_11" function="internal">
        <lane id=":AB0_11_0" index="0" speed="3.65" length="2.34" shape="94.40,0.00,-39.88 94.00,0.80,-39.88 92.80,1.60,-39.88"/>
    </edge>
    <edge id=":AB1_0" function="internal">
        <lane id=":AB1_0_0" index="0" speed="100.00" length="14.40" shape="107.20,101.60,35.93 92.80,101.60,35.93"/>
    </edge>
    <edge id=":AB1_1" function="internal">
        <lane id=":AB1_1_0" index="0" speed="8.00" length="5.93" shape="107.20,101.60,35.93 103.35,101.05,35.93 101.60,100.00,35.93"/>
    </edge>
    <edge id=":AB1_2" function="internal">
        <lane id=":AB1_2_0" index="0" speed="3.65" length="2.34" shape="107.20,101.60,35.93 106.00,100.80,35.93 105.60,100.00,35.93"/>
    </edge>
    <edge id=":AB1_9" function="internal">
        <lane id=":AB1_9_0" index="0" speed="8.00" length="8.26" shape="101.60,100.00,35.93 100.60,99.40,35.93 98.95,96.65,35.93 98.40,92.80,35.93"/>
    </edge>
    <edge id=":AB1_10" function="internal">
        <lane id=":AB1_10_0" index="0" speed="3.65" length="2.34" shape="105.60,100.00,35.93 106.00,99.20,35.93 107.20,98.40,35.93"/>
    </edge>
    <edge id=":AB1_3" function="internal">
        <lane id=":AB1_3_0" index="0" speed="6.51" length="9.03" shape="101.60,92.80,35.93 101.95,95.25,35.93 103.00,97.00,35.93 104.75,98.05,35.93 107.20,98.40,35.93"/>
    </edge>
    <edge id=":AB1_4" function="internal">
        <lane id=":AB1_4_0" index="0" speed="8.00" length="14.19" shape="101.60,92.80,35.93 101.05,96.65,35.93 99.40,99.40,35.93 96.65,101.05,35.93 92.80,101.60,35.93"/>
    </edge>
    <edge id=":AB1_5" function="internal">
        <lane id=":AB1_5_0" index="0" speed="3.65" length="4.67" shape="101.60,92.80,35.93 100.80,94.00,35.93 100.00,94.40,35.93 99.20,94.00,35.93 98.40,92.80,35.93"/>
    </edge>
    <edge id=":AB1_6" function="internal">
        <lane id=":AB1_6_0" index="0" speed="6.51" length="9.03" shape="92.80,98.40,35.93 95.25,98.05,35.93 97.00,97.00,35.93 98.05,95.25,35.93 98.40,92.80,35.93"/>
    </edge>
    <edge id=":AB1_7" function="internal">
        <lane id=":AB1_7_0" index="0" speed="100.00" length="14.40" shape="92.80,98.40,35.93 107.20,98.40,35.93"/>
    </edge>
    <edge id=":AB1_8" function="internal">
        <lane id=":AB1_8_0" index="0" speed="3.65" length="2.34" shape="92.80,98.40,35.93 94.00,99.20,35.93 94.40,100.00,35.93"/>
    </edge>
    <edge id=":AB1_11" function="internal">
        <lane id=":AB1_11_0" index="0" speed="3.65" length="2.34" shape="94.40,100.00,35.93 94.00,100.80,35.93 92.80,101.60,35.93"/>
    </edge>
    <edge id=":AC0_0" function="internal">
        <lane id=":AC0_0_0" index="0" speed="6.51" length="9.03" shape="198.40,7.20,5.69 198.05,4.75,5.69 197.00,3.00,5.69 195.25,1.95,5.69 192.80,1.60,5.69"/>
    </edge>
    <edge id=":AC0_1" function="internal">
        <lane id=":AC0_1_0" index="0" speed="8.00" length="14.19" shape="198.40,7.20,5.69 198.95,3.35,5.69 200.60,0.60,5.69 203.35,-1.05,5.69 207.20,-1.60,5.69"/>
    </edge>
    <edge id=":AC0_2" function="internal">
        <lane id=":AC0_2_0" index="0" speed="3.65" length="4.67" shape="198.40,7.20,5.69 199.20,6.00,5.69 200.00,5.60,5.69 200.80,6.00,5.69 201.60,7.20,5.69"/>
    </edge>
    <edge id=":AC0_3" function="internal">
        <lane id=":AC0_3_0" index="0" speed="6.51" length="9.03" shape="207.20,1.60,5.69 204.75,1.95,5.69 203.00,3.00,5.69 201.95,4.75,5.69 201.60,7.20,5.69"/>
    </edge>
    <edge id=":AC0_4" function="internal">
        <lane id=":AC0_4_0" index="0" speed="100.00" length="14.40" shape="207.20,1.60,5.69 192.80,1.60,5.69"/>
    </edge>
    <edge id=":AC0_5" function="internal">
        <lane id=":AC0_5_0" index="0" speed="3.65" length="2.34" shape="207.20,1.60,5.69 206.00,0.80,5.69 205.60,0.00,5.69"/>
    </edge>
    <edge id=":AC0_9" function="internal">
        <lane id=":AC0_9_0" index="0" speed="3.65" length="2.34" shape="205.60,0.00,5.69 206.00,-0.80,5.69 207.20,-1.60,5.69"/>
    </edge>
    <edge id=":AC0_6" function="internal">
        <lane id=":AC0_6_0" index="0" speed="100.00" length="14.40" shape="192.80,-1.60,5.69 207.20,-1.60,5.69"/>
    </edge>
    <edge id=":AC0_7" function="internal">
        <lane id=":AC0_7_0" index="0" speed="8.00" length="5.93" shape="192.80,-1.60,5.69 196.65,-1.05,5.69 198.40,0.00,5.69"/>
    </edge>
    <edge id=":AC0_8" function="internal">
        <lane id=":AC0_8_0" index="0" speed="3.65" length="2.34" shape="192.80,-1.60,5.69 194.00,-0.80,5.69 194.40,0.00,5.69"/>
    </edge>
    <edge id=":AC0_10" function="internal">
        <lane id=":AC0_10_0" index="0" speed="8.00" length="8.26" shape="198.40,0.00,5.69 199.40,0.60,5.69 201.05,3.35,5.69 201.60,7.20,5.69"/>
    </edge>
    <edge id=":AC0_11" function="internal">
        <lane id=":AC0_11_0" index="0" speed="3.65" length="2.34" shape="194.40,0.00,5.69 194.00,0.80,5.69 192.80,1.60,5.69"/>
    </edge>
    <edge id=":AC1_0" function="internal">
        <lane id=":AC1_0_0" index="0" speed="100.00" length="14.40" shape="207.20,101.60,-27.38 192.80,101.60,-27.38"/>
    </edge>
    <edge id=":AC1_1" function="internal">
        <lane id=":AC1_1_0" index="0" speed="8.00" length="5.93" shape="207.20,101.60,-27.38 203.35,101.05,-27.38 201.60,100.00,-27.38"/>
    </edge>
    <edge id=":AC1_2" function="internal">
        <lane id=":AC1_2_0" index="0" speed="3.65" length="2.34" shape="207.20,101.60,-27.38 206.00,100.80,-27.38 205.60,100.00,-27.38"/>
    </edge>
    <edge id=":AC1_9" function="internal">
        <lane id=":AC1_9_0" index="0" speed="8.00" length="8.26" shape="201.60,100.00,-27.38 200.60,99.40,-27.38 198.95,96.65,-27.38 198.40,92.80,-27.38"/>
    </edge>
    <edge id=":AC1_10" function="internal">
        <lane id=":AC1_10_0" index="0" speed="3.65" length="2.34" shape="205.60,100.00,-27.38 206.00,99.20,-27.38 207.20,98.40,-27.38"/>
    </edge>
    <edge id=":AC1_3" function="internal">
        <lane id=":AC1_3_0" index="0" speed="6.51" length="9.03" shape="201.60,92.80,-27.38 201.95,95.25,-27.38 203.00,97.00,-27.38 204.75,98.05,-27.38 207.20,98.40,-27.38"/>
    </edge>
    <edge id=":AC1_4" function="internal">
        <lane id=":AC1_4_0" index="0" speed="8.00" length="14.19" shape="201.60,92.80,-27.38 201.05,96.65,-27.38 199.40,99.40,-27.38 196.65,101.05,-27.38 192.80,101.60,-27.38"/>
    </edge>
    <edge id=":AC1_5" function="internal">
        <lane id=":AC1_5_0" index="0" speed="3.65" length="4.67" shape="201.60,92.80,-27.38 200.80,94.00,-27.38 200.00,94.40,-27.38 199.20,94.00,-27.38 198.40,92.80,-27.38"/>
    </edge>
    <edge id=":AC1_6" function="internal">
        <lane id=":AC1_6_0" index="0" speed="6.51" length="9.03" shape="192.80,98.40,-27.38 195.25,98.05,-27.38 197.00,97.00,-27.38 198.05,95.25,-27.38 198.40,92.80,-27.38"/>
    </edge>
    <edge id=":AC1_7" function="internal">
        <lane id=":AC1_7_0" index="0" speed="100.00" length="14.40" shape="192.80,98.40,-27.38 207.20,98.40,-27.38"/>
    </edge>
    <edge id=":AC1_8" function="internal">
        <lane id=":AC1_8_0" index="0" speed="3.65" length="2.34" shape="192.80,98.40,-27.38 194.00,99.20,-27.38 194.40,100.00,-27.38"/>
    </edge>
    <edge id=":AC1_11" function="internal">
        <lane id=":AC1_11_0" index="0" speed="3.65" length="2.34" shape="194.40,100.00,-27.38 194.00,100.80,-27.38 192.80,101.60,-27.38"/>
    </edge>
    <edge id=":AD0_0" function="internal">
        <lane id=":AD0_0_0" index="0" speed="6.51" length="9.03" shape="298.40,7.20,-17.77 298.05,4.75,-17.77 297.00,3.00,-17.77 295.25,1.95,-17.77 292.80,1.60,-17.77"/>
    </edge>
    <edge id=":AD0_1" function="internal">
        <lane id=":AD0_1_0" index="0" speed="8.00" length="14.19" shape="298.40,7.20,-17.77 298.95,3.35,-17.77 300.60,0.60,-17.77 303.35,-1.05,-17.77 307.20,-1.60,-17.77"/>
    </edge>
    <edge id=":AD0_2" function="internal">
        <lane id=":AD0_2_0" index="0" speed="3.65" length="4.67" shape="298.40,7.20,-17.77 299.20,6.00,-17.77 300.00,5.60,-17.77 300.80,6.00,-17.77 301.60,7.20,-17.77"/>
    </edge>
    <edge id=":AD0_3" function="internal">
        <lane id=":AD0_3_0" index="0" speed="6.51" length="9.03" shape="307.20,1.60,-17.77 304.75,1.95,-17.77 303.00,3.00,-17.77 301.95,4.75,-17.77 301.60,7.20,-17.77"/>
    </edge>
    <edge id=":AD0_4" function="internal">
        <lane id=":AD0_4_0" index="0" speed="100.00" length="14.40" shape="307.20,1.60,-17.77 292.80,1.60,-17.77"/>
    </edge>
    <edge id=":AD0_5" function="internal">
        <lane id=":AD0_5_0" index="0" speed="3.65" length="2.34" shape="307.20,1.60,-17.77 306.00,0.80,-17.77 305.60,0.00,-17.77"/>
    </edge>
    <edge id=":AD0_9" function="internal">
        <lane id=":AD0_9_0" index="0" speed="3.65" length="2.34" shape="305.60,0.00,-17.77 306.00,-0.80,-17.77 307.20,-1.60,-17.77"/>
    </edge>
    <edge id=":AD0_6" function="internal">
        <lane id=":AD0_6_0" index="0" speed="100.00" length="14.40" shape="292.80,-1.60,-17.77 307.20,-1.60,-17.77"/>
    </edge>
    <edge id=":AD0_7" function="internal">
        <lane id=":AD0_7_0" index="0" speed="8.00" length="5.93" shape="292.80,-1.60,-17.77 296.65,-1.05,-17.77 298.40,-0.00,-17.77"/>
    </edge>
    <edge id=":AD0_8" function="internal">
        <lane id=":AD0_8_0" index="0" speed="3.65" length="2.34" shape="292.80,-1.60,-17.77 294.00,-0.80,-17.77 294.40,0.00,-17.77"/>
    </edge>
    <edge id=":AD0_10" function="internal">
        <lane id=":AD0_10_0" index="0" speed="8.00" length="8.26" shape="298.40,-0.00,-17.77 299.40,0.60,-17.77 301.05,3.35,-17.77 301.60,7.20,-17.77"/>
    </edge>
    <edge id=":AD0_11" function="internal">
        <lane id=":AD0_11_0" index="0" speed="3.65" length="2.34" shape="294.40,0.00,-17.77 294.00,0.80,-17.77 292.80,1.60,-17.77"/>
    </edge>
    <edge id=":AD1_0" function="internal">
        <lane id=":AD1_0_0" index="0" speed="100.00" length="14.40" shape="307.20,101.60,8.21 292.80,101.60,8.21"/>
    </edge>
    <edge id=":AD1_1" function="internal">
        <lane id=":AD1_1_0" index="0" speed="8.00" length="5.93" shape="307.20,101.60,8.21 303.35,101.05,8.21 301.60,100.00,8.21"/>
    </edge>
    <edge id=":AD1_2" function="internal">
        <lane id=":AD1_2_0" index="0" speed="3.65" length="2.34" shape="307.20,101.60,8.21 306.00,100.80,8.21 305.60,100.00,8.21"/>
    </edge>
    <edge id=":AD1_9" function="internal">
        <lane id=":AD1_9_0" index="0" speed="8.00" length="8.26" shape="301.60,100.00,8.21 300.60,99.40,8.21 298.95,96.65,8.21 298.40,92.80,8.21"/>
    </edge>
    <edge id=":AD1_10" function="internal">
        <lane id=":AD1_10_0" index="0" speed="3.65" length="2.34" shape="305.60,100.00,8.21 306.00,99.20,8.21 307.20,98.40,8.21"/>
    </edge>
    <edge id=":AD1_3" function="internal">
        <lane id=":AD1_3_0" index="0" speed="6.51" length="9.03" shape="301.60,92.80,8.21 301.95,95.25,8.21 303.00,97.00,8.21 304.75,98.05,8.21 307.20,98.40,8.21"/>
    </edge>
    <edge id=":AD1_4" function="internal">
        <lane id=":AD1_4_0" index="0" speed="8.00" length="14.19" shape="301.60,92.80,8.21 301.05,96.65,8.21 299.40,99.40,8.21 296.65,101.05,8.21 292.80,101.60,8.21"/>
    </edge>
    <edge id=":AD1_5" function="internal">
        <lane id=":AD1_5_0" index="0" speed="3.65" length="4.67" shape="301.60,92.80,8.21 300.80,94.00,8.21 300.00,94.40,8.21 299.20,94.00,8.21 298.40,92.80,8.21"/>
    </edge>
    <edge id=":AD1_6" function="internal">
        <lane id=":AD1_6_0" index="0" speed="6.51" length="9.03" shape="292.80,98.40,8.21 295.25,98.05,8.21 297.00,97.00,8.21 298.05,95.25,8.21 298.40,92.80,8.21"/>
    </edge>
    <edge id=":AD1_7" function="internal">
        <lane id=":AD1_7_0" index="0" speed="100.00" length="14.40" shape="292.80,98.40,8.21 307.20,98.40,8.21"/>
    </edge>
    <edge id=":AD1_8" function="internal">
        <lane id=":AD1_8_0" index="0" speed="3.65" length="2.34" shape="292.80,98.40,8.21 294.00,99.20,8.21 294.40,100.00,8.21"/>
    </edge>
    <edge id=":AD1_11" function="internal">
        <lane id=":AD1_11_0" index="0" speed="3.65" length="2.34" shape="294.40,100.00,8.21 294.00,100.80,8.21 292.80,101.60,8.21"/>
    </edge>
    <edge id=":AE0_0" function="internal">
        <lane id=":AE0_0_0" index="0" speed="6.51" length="9.03" shape="398.40,7.20,-14.97 398.05,4.75,-14.97 397.00,3.00,-14.97 395.25,1.95,-14.97 392.80,1.60,-14.97"/>
    </edge>
    <edge id=":AE0_1" function="internal">
        <lane id=":AE0_1_0" index="0" speed="8.00" length="14.19" shape="398.40,7.20,-14.97 398.95,3.35,-14.97 400.60,0.60,-14.97 403.35,-1.05,-14.97 407.20,-1.60,-14.97"/>
    </edge>
    <edge id=":AE0_2" function="internal">
        <lane id=":AE0_2_0" index="0" speed="3.65" length="4.67" shape="398.40,7.20,-14.97 399.20,6.00,-14.97 400.00,5.60,-14.97 400.80,6.00,-14.97 401.60,7.20,-14.97"/>
    </edge>
    <edge id=":AE0_3" function="internal">
        <lane id=":AE0_3_0" index="0" speed="6.51" length="9.03" shape="407.20,1.60,-14.97 404.75,1.95,-14.97 403.00,3.00,-14.97 401.95,4.75,-14.97 401.60,7.20,-14.97"/>
    </edge>
    <edge id=":AE0_4" function="internal">
        <lane id=":AE0_4_0" index="0" speed="100.00" length="14.40" shape="407.20,1.60,-14.97 392.80,1.60,-14.97"/>
    </edge>
    <edge id=":AE0_5" function="internal">
        <lane id=":AE0_5_0" index="0" speed="3.65" length="2.34" shape="407.20,1.60,-14.97 406.00,0.80,-14.97 405.60,0.00,-14.97"/>
    </edge>
    <edge id=":AE0_9" function="internal">
        <lane id=":AE0_9_0" index="0" speed="3.65" length="2.34" shape="405.60,0.00,-14.97 406.00,-0.80,-14.97 407.20,-1.60,-14.97"/>
    </edge>
    <edge id=":AE0_6" function="internal">
        <lane id=":AE0_6_0" index="0" speed="100.00" length="14.40" shape="392.80,-1.60,-14.97 407.20,-1.60,-14.97"/>
    </edge>
    <edge id=":AE0_7" function="internal">
        <lane id=":AE0_7_0" index="0" speed="8.00" length="5.93" shape="392.80,-1.60,-14.97 396.65,-1.05,-14.97 398.40,-0.00,-14.97"/>
    </edge>
    <edge id=":AE0_8" function="internal">
        <lane id=":AE0_8_0" index="0" speed="3.65" length="2.34" shape="392.80,-1.60,-14.97 394.00,-0.80,-14.97 394.40,0.00,-14.97"/>
    </edge>
    <edge id=":AE0_10" function="internal">
        <lane id=":AE0_10_0" index="0" speed="8.00" length="8.26" shape="398.40,-0.00,-14.97 399.40,0.60,-14.97 401.05,3.35,-14.97 401.60,7.20,-14.97"/>
    </edge>
    <edge id=":AE0_11" function="internal">
        <lane id=":AE0_11_0" index="0" speed="3.65" length="2.34" shape="394.40,0.00,-14.97 394.00,0.80,-14.97 392.80,1.60,-14.97"/>
    </edge>
    <edge id=":AE1_0" function="internal">
        <lane id=":AE1_0_0" index="0" speed="100.00" length="14.40" shape="407.20,101.60,35.11 392.80,101.60,34.93"/>
    </edge>
    <edge id=":AE1_1" function="internal">
        <lane id=":AE1_1_0" index="0" speed="8.00" length="5.93" shape="407.20,101.60,35.11 403.35,101.05,35.06 401.60,100.00,35.03"/>
    </edge>
    <edge id=":AE1_2" function="internal">
        <lane id=":AE1_2_0" index="0" speed="3.65" length="2.34" shape="407.20,101.60,35.11 406.00,100.80,35.11 405.60,100.00,35.11"/>
    </edge>
    <edge id=":AE1_9" function="internal">
        <lane id=":AE1_9_0" index="0" speed="8.00" length="8.26" shape="401.60,100.00,35.03 400.60,99.40,35.02 398.95,96.65,34.98 398.40,92.80,34.93"/>
    </edge>
    <edge id=":AE1_10" function="internal">
        <lane id=":AE1_10_0" index="0" speed="3.65" length="2.34" shape="405.60,100.00,35.11 406.00,99.20,35.11 407.20,98.40,35.11"/>
    </edge>
    <edge id=":AE1_3" function="internal">
        <lane id=":AE1_3_0" index="0" speed="6.51" length="9.03" shape="401.60,92.80,34.93 401.95,95.25,34.98 403.00,97.00,35.02 404.75,98.05,35.06 407.20,98.40,35.11"/>
    </edge>
    <edge id=":AE1_4" function="internal">
        <lane id=":AE1_4_0" index="0" speed="8.00" length="14.19" shape="401.60,92.80,34.93 401.05,96.65,34.93 399.40,99.40,34.93 396.65,101.05,34.93 392.80,101.60,34.93"/>
    </edge>
    <edge id=":AE1_5" function="internal">
        <lane id=":AE1_5_0" index="0" speed="3.65" length="4.67" shape="401.60,92.80,34.93 400.80,94.00,34.93 400.00,94.40,34.93 399.20,94.00,34.93 398.40,92.80,34.93"/>
    </edge>
    <edge id=":AE1_6" function="internal">
        <lane id=":AE1_6_0" index="0" speed="6.51" length="9.03" shape="392.80,98.40,34.93 395.25,98.05,34.93 397.00,97.00,34.93 398.05,95.25,34.93 398.40,92.80,34.93"/>
    </edge>
    <edge id=":AE1_7" function="internal">
        <lane id=":AE1_7_0" index="0" speed="100.00" length="14.40" shape="392.80,98.40,34.93 407.20,98.40,35.11"/>
    </edge>
    <edge id=":AE1_8" function="internal">
        <lane id=":AE1_8_0" index="0" speed="3.65" length="2.34" shape="392.80,98.40,34.93 394.00,99.20,34.93 394.40,100.00,34.93"/>
    </edge>
    <edge id=":AE1_11" function="internal">
        <lane id=":AE1_11_0" index="0" speed="3.65" length="2.34" shape="394.40,100.00,34.93 394.00,100.80,34.93 392.80,101.60,34.93"/>
    </edge>
    <edge id=":AF0_0" function="internal">
        <lane id=":AF0_0_0" index="0" speed="6.51" length="9.03" shape="498.40,7.20,5.03 498.05,4.75,5.03 497.00,3.00,5.03 495.25,1.95,5.03 492.80,1.60,5.03"/>
    </edge>
    <edge id=":AF0_1" function="internal">
        <lane id=":AF0_1_0" index="0" speed="8.00" length="14.19" shape="498.40,7.20,5.03 498.95,3.35,5.03 500.60,0.60,5.03 503.35,-1.05,5.03 507.20,-1.60,5.03"/>
    </edge>
    <edge id=":AF0_2" function="internal">
        <lane id=":AF0_2_0" index="0" speed="3.65" length="4.67" shape="498.40,7.20,5.03 499.20,6.00,5.03 500.00,5.60,5.03 500.80,6.00,5.03 501.60,7.20,5.03"/>
    </edge>
    <edge id=":AF0_3" function="internal">
        <lane id=":AF0_3_0" index="0" speed="6.51" length="9.03" shape="507.20,1.60,5.03 504.75,1.95,5.03 503.00,3.00,5.03 501.95,4.75,5.03 501.60,7.20,5.03"/>
    </edge>
    <edge id=":AF0_4" function="internal">
        <lane id=":AF0_4_0" index="0" speed="100.00" length="14.40" shape="507.20,1.60,5.03 492.80,1.60,5.03"/>
    </edge>
    <edge id=":AF0_5" function="internal">
        <lane id=":AF0_5_0" index="0" speed="3.65" length="2.34" shape="507.20,1.60,5.03 506.00,0.80,5.03 505.60,0.00,5.03"/>
    </edge>
    <edge id=":AF0_9" function="internal">
        <lane id=":AF0_9_0" index="0" speed="3.65" length="2.34" shape="505.60,0.00,5.03 506.00,-0.80,5.03 507.20,-1.60,5.03"/>
    </edge>
    <edge id=":AF0_6" function="internal">
        <lane id=":AF0_6_0" index="0" speed="100.00" length="14.40" shape="492.80,-1.60,5.03 507.20,-1.60,5.03"/>
    </edge>
    <edge id=":AF0_7" function="internal">
        <lane id=":AF0_7_0" index="0" speed="8.00" length="5.93" shape="492.80,-1.60,5.03 496.65,-1.05,5.03 498.40,-0.00,5.03"/>
    </edge>
    <edge id=":AF0_8" function="internal">
        <lane id=":AF0_8_0" index="0" speed="3.65" length="2.34" shape="492.80,-1.60,5.03 494.00,-0.80,5.03 494.40,0.00,5.03"/>
    </edge>
    <edge id=":AF0_10" function="internal">
        <lane id=":AF0_10_0" index="0" speed="8.00" length="8.26" shape="498.40,-0.00,5.03 499.40,0.60,5.03 501.05,3.35,5.03 501.60,7.20,5.03"/>
    </edge>
    <edge id=":AF0_11" function="internal">
        <lane id=":AF0_11_0" index="0" speed="3.65" length="2.34" shape="494.40,0.00,5.03 494.00,0.80,5.03 492.80,1.60,5.03"/>
    </edge>
    <edge id=":AF1_0" function="internal">
        <lane id=":AF1_0_0" index="0" speed="100.00" length="14.40" shape="507.20,101.60,37.36 492.80,101.60,37.19"/>
    </edge>
    <edge id=":AF1_1" function="internal">
        <lane id=":AF1_1_0" index="0" speed="8.00" length="5.93" shape="507.20,101.60,37.36 503.35,101.05,37.36 501.60,100.00,37.36"/>
    </edge>
    <edge id=":AF1_2" function="internal">
        <lane id=":AF1_2_0" index="0" speed="3.65" length="2.34" shape="507.20,101.60,37.36 506.00,100.80,37.36 505.60,100.00,37.36"/>
    </edge>
    <edge id=":AF1_9" function="internal">
        <lane id=":AF1_9_0" index="0" speed="8.00" length="8.26" shape="501.60,100.00,37.36 500.60,99.40,37.36 498.95,96.65,37.36 498.40,92.80,37.36"/>
    </edge>
    <edge id=":AF1_10" function="internal">
        <lane id=":AF1_10_0" index="0" speed="3.65" length="2.34" shape="505.60,100.00,37.36 506.00,99.20,37.36 507.20,98.40,37.36"/>
    </edge>
    <edge id=":AF1_3" function="internal">
        <lane id=":AF1_3_0" index="0" speed="6.51" length="9.03" shape="501.60,92.80,37.36 501.95,95.25,37.36 503.00,97.00,37.36 504.75,98.05,37.36 507.20,98.40,37.36"/>
    </edge>
    <edge id=":AF1_4" function="internal">
        <lane id=":AF1_4_0" index="0" speed="8.00" length="14.19" shape="501.60,92.80,37.36 501.05,96.65,37.31 499.40,99.40,37.27 496.65,101.05,37.23 492.80,101.60,37.19"/>
    </edge>
    <edge id=":AF1_5" function="internal">
        <lane id=":AF1_5_0" index="0" speed="3.65" length="4.67" shape="501.60,92.80,37.36 500.80,94.00,37.36 500.00,94.40,37.36 499.20,94.00,37.36 498.40,92.80,37.36"/>
    </edge>
    <edge id=":AF1_6" function="internal">
        <lane id=":AF1_6_0" index="0" speed="6.51" length="9.03" shape="492.80,98.40,37.19 495.25,98.05,37.23 497.00,97.00,37.27 498.05,95.25,37.31 498.40,92.80,37.36"/>
    </edge>
    <edge id=":AF1_7" function="internal">
        <lane id=":AF1_7_0" index="0" speed="100.00" length="14.40" shape="492.80,98.40,37.19 507.20,98.40,37.36"/>
    </edge>
    <edge id=":AF1_8" function="internal">
        <lane id=":AF1_8_0" index="0" speed="3.65" length="2.34" shape="492.80,98.40,37.19 494.00,99.20,37.19 494.40,100.00,37.19"/>
    </edge>
    <edge id=":AF1_11" function="internal">
        <lane id=":AF1_11_0" index="0" speed="3.65" length="2.34" shape="494.40,100.00,37.19 494.00,100.80,37.19 492.80,101.60,37.19"/>
    </edge>
    <edge id=":AG0_0" function="internal">
        <lane id=":AG0_0_0" index="0" speed="6.51" length="9.03" shape="598.40,7.20,7.82 598.05,4.75,7.82 597.00,3.00,7.82 595.25,1.95,7.82 592.80,1.60,7.82"/>
    </edge>
    <edge id=":AG0_1" function="internal">
        <lane id=":AG0_1_0" index="0" speed="8.00" length="14.19" shape="598.40,7.20,7.82 598.95,3.35,7.82 600.60,0.60,7.82 603.35,-1.05,7.82 607.20,-1.60,7.82"/>
    </edge>
    <edge id=":AG0_2" function="internal">
        <lane id=":AG0_2_0" index="0" speed="3.65" length="4.67" shape="598.40,7.20,7.82 599.20,6.00,7.82 600.00,5.60,7.82 600.80,6.00,7.82 601.60,7.20,7.82"/>
    </edge>
    <edge id=":AG0_3" function="internal">
        <lane id=":AG0_3_0" index="0" speed="6.51" length="9.03" shape="607.20,1.60,7.82 604.75,1.95,7.82 603.00,3.00,7.82 601.95,4.75,7.82 601.60,7.20,7.82"/>
    </edge>
    <edge id=":AG0_4" function="internal">
        <lane id=":AG0_4_0" index="0" speed="100.00" length="14.40" shape="607.20,1.60,7.82 592.80,1.60,7.82"/>
    </edge>
    <edge id=":AG0_5" function="internal">
        <lane id=":AG0_5_0" index="0" speed="3.65" length="2.34" shape="607.20,1.60,7.82 606.00,0.80,7.82 605.60,0.00,7.82"/>
    </edge>
    <edge id=":AG0_9" function="internal">
        <lane id=":AG0_9_0" index="0" speed="3.65" length="2.34" shape="605.60,0.00,7.82 606.00,-0.80,7.82 607.20,-1.60,7.82"/>
    </edge>
    <edge id=":AG0_6" function="internal">
        <lane id=":AG0_6_0" index="0" speed="100.00" length="14.40" shape="592.80,-1.60,7.82 607.20,-1.60,7.82"/>
    </edge>
    <edge id=":AG0_7" function="internal">
        <lane id=":AG0_7_0" index="0" speed="8.00" length="5.93" shape="592.80,-1.60,7.82 596.65,-1.05,7.82 598.40,0.00,7.82"/>
    </edge>
    <edge id=":AG0_8" function="internal">
        <lane id=":AG0_8_0" index="0" speed="3.65" length="2.34" shape="592.80,-1.60,7.82 594.00,-0.80,7.82 594.40,0.00,7.82"/>
    </edge>
    <edge id=":AG0_10" function="internal">
        <lane id=":AG0_10_0" index="0" speed="8.00" length="8.26" shape="598.40,0.00,7.82 599.40,0.60,7.82 601.05,3.35,7.82 601.60,7.20,7.82"/>
    </edge>
    <edge id=":AG0_11" function="internal">
        <lane id=":AG0_11_0" index="0" speed="3.65" length="2.34" shape="594.40,0.00,7.82 594.00,0.80,7.82 592.80,1.60,7.82"/>
    </edge>
    <edge id=":AG1_0" function="internal">
        <lane id=":AG1_0_0" index="0" speed="100.00" length="14.40" shape="607.20,101.60,-20.40 592.80,101.60,-20.40"/>
    </edge>
    <edge id=":AG1_1" function="internal">
        <lane id=":AG1_1_0" index="0" speed="8.00" length="5.93" shape="607.20,101.60,-20.40 603.35,101.05,-20.40 601.60,100.00,-20.40"/>
    </edge>
    <edge id=":AG1_2" function="internal">
        <lane id=":AG1_2_0" index="0" speed="3.65" length="2.34" shape="607.20,101.60,-20.40 606.00,100.80,-20.40 605.60,100.00,-20.40"/>
    </edge>
    <edge id=":AG1_9" function="internal">
        <lane id=":AG1_9_0" index="0" speed="8.00" length="8.26" shape="601.60,100.00,-20.40 600.60,99.40,-20.40 598.95,96.65,-20.40 598.40,92.80,-20.40"/>
    </edge>
    <edge id=":AG1_10" function="internal">
        <lane id=":AG1_10_0" index="0" speed="3.65" length="2.34" shape="605.60,100.00,-20.40 606.00,99.20,-20.40 607.20,98.40,-20.40"/>
    </edge>
    <edge id=":AG1_3" function="internal">
        <lane id=":AG1_3_0" index="0" speed="6.51" length="9.03" shape="601.60,92.80,-20.40 601.95,95.25,-20.40 603.00,97.00,-20.40 604.75,98.05,-20.40 607.20,98.40,-20.40"/>
    </edge>
    <edge id=":AG1_4" function="internal">
        <lane id=":AG1_4_0" index="0" speed="8.00" length="14.19" shape="601.60,92.80,-20.40 601.05,96.65,-20.40 599.40,99.40,-20.40 596.65,101.05,-20.40 592.80,101.60,-20.40"/>
    </edge>
    <edge id=":AG1_5" function="internal">
        <lane id=":AG1_5_0" index="0" speed="3.65" length="4.67" shape="601.60,92.80,-20.40 600.80,94.00,-20.40 600.00,94.40,-20.40 599.20,94.00,-20.40 598.40,92.80,-20.40"/>
    </edge>
    <edge id=":AG1_6" function="internal">
        <lane id=":AG1_6_0" index="0" speed="6.51" length="9.03" shape="592.80,98.40,-20.40 595.25,98.05,-20.40 597.00,97.00,-20.40 598.05,95.25,-20.40 598.40,92.80,-20.40"/>
    </edge>
    <edge id=":AG1_7" function="internal">