<?xml version="1.0" encoding="UTF-8"?>

<!-- generated on 08/01/20 19:35:32 by Eclipse SUMO netgenerate Version 1.5.0
<configuration xmlns:xsi="http://www.w3.org/2001/XMLSchema-instance" xsi:noNamespaceSchemaLocation="http://sumo.dlr.de/xsd/netgenerateConfiguration.xsd">

    <grid_network>
        <grid value="true"/>
        <grid.x-number value="41"/>
        <grid.y-number value="2"/>
    </grid_network>

    <output>
        <output-file value="25.net.xml"/>
    </output>

    <processing>
        <perturb-z value="25"/>
    </processing>

    <building_defaults>
        <default.speed value="100"/>
    </building_defaults>

    <random_number>
        <seed value="916765594"/>
    </random_number>

</configuration>
-->

<net version="1.3" junctionCornerDetail="5" limitTurnSpeed="5.50" xmlns:xsi="http://www.w3.org/2001/XMLSchema-instance" xsi:noNamespaceSchemaLocation="http://sumo.dlr.de/xsd/net_file.xsd">

    <location netOffset="0.00,0.00" convBoundary="0.00,0.00,4000.00,100.00" origBoundary="0.00,0.00,4000.00,100.00" projParameter="!"/>

    <edge id=":AA0_0" function="internal">
        <lane id=":AA0_0_0" index="0" speed="6.08" length="7.80" shape="-1.60,3.20,-8.92 -1.30,1.10,-8.66 -0.40,-0.40,-8.44 1.10,-1.30,-8.22 3.20,-1.60,-7.96"/>
    </edge>
    <edge id=":AA0_1" function="internal">
        <lane id=":AA0_1_0" index="0" speed="3.90" length="2.76" shape="3.20,1.60,-7.94 2.50,1.70,-8.21 2.00,2.00,-8.43 1.70,2.50,-8.65 1.60,3.20,-8.92"/>
    </edge>
    <edge id=":AA1_0" function="internal">
        <lane id=":AA1_0_0" index="0" speed="6.08" length="7.83" shape="3.20,101.60,-28.00 1.10,101.30,-28.33 -0.40,100.40,-28.60 -1.30,98.90,-28.87 -1.60,96.80,-29.20"/>
    </edge>
    <edge id=":AA1_1" function="internal">
        <lane id=":AA1_1_0" index="0" speed="3.90" length="2.79" shape="1.60,96.80,-29.20 1.70,97.50,-28.91 2.00,98.00,-28.67 2.50,98.30,-28.43 3.20,98.40,-28.14"/>
    </edge>
    <edge id=":AB0_0" function="internal">
        <lane id=":AB0_0_0" index="0" speed="6.51" length="9.03" shape="98.40,7.20,0.25 98.05,4.75,0.25 97.00,3.00,0.25 95.25,1.95,0.25 92.80,1.60,0.25"/>
    </edge>
    <edge id=":AB0_1" function="internal">
        <lane id=":AB0_1_0" index="0" speed="8.00" length="14.19" shape="98.40,7.20,0.25 98.95,3.35,0.25 100.60,0.60,0.25 103.35,-1.05,0.25 107.20,-1.60,0.25"/>
    </edge>
    <edge id=":AB0_2" function="internal">
        <lane id=":AB0_2_0" index="0" speed="3.65" length="4.67" shape="98.40,7.20,0.25 99.20,6.00,0.25 100.00,5.60,0.25 100.80,6.00,0.25 101.60,7.20,0.25"/>
    </edge>
    <edge id=":AB0_3" function="internal">
        <lane id=":AB0_3_0" index="0" speed="6.51" length="9.03" shape="107.20,1.60,0.25 104.75,1.95,0.25 103.00,3.00,0.25 101.95,4.75,0.25 101.60,7.20,0.25"/>
    </edge>
    <edge id=":AB0_4" function="internal">
        <lane id=":AB0_4_0" index="0" speed="100.00" length="14.40" shape="107.20,1.60,0.25 92.80,1.60,0.25"/>
    </edge>
    <edge id=":AB0_5" function="internal">
        <lane id=":AB0_5_0" index="0" speed="3.65" length="2.34" shape="107.20,1.60,0.25 106.00,0.80,0.25 105.60,0.00,0.25"/>
    </edge>
    <edge id=":AB0_9" function="internal">
        <lane id=":AB0_9_0" index="0" speed="3.65" length="2.34" shape="105.60,0.00,0.25 106.00,-0.80,0.25 107.20,-1.60,0.25"/>
    </edge>
    <edge id=":AB0_6" function="internal">
        <lane id=":AB0_6_0" index="0" speed="100.00" length="14.40" shape="92.80,-1.60,0.25 107.20,-1.60,0.25"/>
    </edge>
    <edge id=":AB0_7" function="internal">
        <lane id=":AB0_7_0" index="0" speed="8.00" length="5.93" shape="92.80,-1.60,0.25 96.65,-1.05,0.25 98.40,0.00,0.25"/>
    </edge>
    <edge id=":AB0_8" function="internal">
        <lane id=":AB0_8_0" index="0" speed="3.65" length="2.34" shape="92.80,-1.60,0.25 94.00,-0.80,0.25 94.40,0.00,0.25"/>
    </edge>
    <edge id=":AB0_10" function="internal">
        <lane id=":AB0_10_0" index="0" speed="8.00" length="8.26" shape="98.40,0.00,0.25 99.40,0.60,0.25 101.05,3.35,0.25 101.60,7.20,0.25"/>
    </edge>
    <edge id=":AB0_11" function="internal">
        <lane id=":AB0_11_0" index="0" speed="3.65" length="2.34" shape="94.40,0.00,0.25 94.00,0.80,0.25 92.80,1.60,0.25"/>
    </edge>
    <edge id=":AB1_0" function="internal">
        <lane id=":AB1_0_0" index="0" speed="100.00" length="14.40" shape="107.20,101.60,24.97 92.80,101.60,24.97"/>
    </edge>
    <edge id=":AB1_1" function="internal">
        <lane id=":AB1_1_0" index="0" speed="8.00" length="5.93" shape="107.20,101.60,24.97 103.35,101.05,24.97 101.60,100.00,24.97"/>
    </edge>
    <edge id=":AB1_2" function="internal">
        <lane id=":AB1_2_0" index="0" speed="3.65" length="2.34" shape="107.20,101.60,24.97 106.00,100.80,24.97 105.60,100.00,24.97"/>
    </edge>
    <edge id=":AB1_9" function="internal">
        <lane id=":AB1_9_0" index="0" speed="8.00" length="8.26" shape="101.60,100.00,24.97 100.60,99.40,24.97 98.95,96.65,24.97 98.40,92.80,24.97"/>
    </edge>
    <edge id=":AB1_10" function="internal">
        <lane id=":AB1_10_0" index="0" speed="3.65" length="2.34" shape="105.60,100.00,24.97 106.00,99.20,24.97 107.20,98.40,24.97"/>
    </edge>
    <edge id=":AB1_3" function="internal">
        <lane id=":AB1_3_0" index="0" speed="6.51" length="9.03" shape="101.60,92.80,24.97 101.95,95.25,24.97 103.00,97.00,24.97 104.75,98.05,24.97 107.20,98.40,24.97"/>
    </edge>
    <edge id=":AB1_4" function="internal">
        <lane id=":AB1_4_0" index="0" speed="8.00" length="14.19" shape="101.60,92.80,24.97 101.05,96.65,24.97 99.40,99.40,24.97 96.65,101.05,24.97 92.80,101.60,24.97"/>
    </edge>
    <edge id=":AB1_5" function="internal">
        <lane id=":AB1_5_0" index="0" speed="3.65" length="4.67" shape="101.60,92.80,24.97 100.80,94.00,24.97 100.00,94.40,24.97 99.20,94.00,24.97 98.40,92.80,24.97"/>
    </edge>
    <edge id=":AB1_6" function="internal">
        <lane id=":AB1_6_0" index="0" speed="6.51" length="9.03" shape="92.80,98.40,24.97 95.25,98.05,24.97 97.00,97.00,24.97 98.05,95.25,24.97 98.40,92.80,24.97"/>
    </edge>
    <edge id=":AB1_7" function="internal">
        <lane id=":AB1_7_0" index="0" speed="100.00" length="14.40" shape="92.80,98.40,24.97 107.20,98.40,24.97"/>
    </edge>
    <edge id=":AB1_8" function="internal">
        <lane id=":AB1_8_0" index="0" speed="3.65" length="2.34" shape="92.80,98.40,24.97 94.00,99.20,24.97 94.40,100.00,24.97"/>
    </edge>
    <edge id=":AB1_11" function="internal">
        <lane id=":AB1_11_0" index="0" speed="3.65" length="2.34" shape="94.40,100.00,24.97 94.00,100.80,24.97 92.80,101.60,24.97"/>
    </edge>
    <edge id=":AC0_0" function="internal">
        <lane id=":AC0_0_0" index="0" speed="6.51" length="9.03" shape="198.40,7.20,11.25 198.05,4.75,11.25 197.00,3.00,11.25 195.25,1.95,11.25 192.80,1.60,11.25"/>
    </edge>
    <edge id=":AC0_1" function="internal">
        <lane id=":AC0_1_0" index="0" speed="8.00" length="14.19" shape="198.40,7.20,11.25 198.95,3.35,11.24 200.60,0.60,11.24 203.35,-1.05,11.23 207.20,-1.60,11.22"/>
    </edge>
    <edge id=":AC0_2" function="internal">
        <lane id=":AC0_2_0" index="0" speed="3.65" length="4.67" shape="198.40,7.20,11.25 199.20,6.00,11.25 200.00,5.60,11.25 200.80,6.00,11.25 201.60,7.20,11.25"/>
    </edge>
    <edge id=":AC0_3" function="internal">
        <lane id=":AC0_3_0" index="0" speed="6.51" length="9.03" shape="207.20,1.60,11.22 204.75,1.95,11.23 203.00,3.00,11.24 201.95,4.75,11.24 201.60,7.20,11.25"/>
    </edge>
    <edge id=":AC0_4" function="internal">
        <lane id=":AC0_4_0" index="0" speed="100.00" length="14.40" shape="207.20,1.60,11.22 192.80,1.60,11.25"/>
    </edge>
    <edge id=":AC0_5" function="internal">
        <lane id=":AC0_5_0" index="0" speed="3.65" length="2.34" shape="207.20,1.60,11.22 206.00,0.80,11.22 205.60,0.00,11.22"/>
    </edge>
    <edge id=":AC0_9" function="internal">
        <lane id=":AC0_9_0" index="0" speed="3.65" length="2.34" shape="205.60,0.00,11.22 206.00,-0.80,11.22 207.20,-1.60,11.22"/>
    </edge>
    <edge id=":AC0_6" function="internal">
        <lane id=":AC0_6_0" index="0" speed="100.00" length="14.40" shape="192.80,-1.60,11.25 207.20,-1.60,11.22"/>
    </edge>
    <edge id=":AC0_7" function="internal">
        <lane id=":AC0_7_0" index="0" speed="8.00" length="5.93" shape="192.80,-1.60,11.25 196.65,-1.05,11.25 198.40,0.00,11.25"/>
    </edge>
    <edge id=":AC0_8" function="internal">
        <lane id=":AC0_8_0" index="0" speed="3.65" length="2.34" shape="192.80,-1.60,11.25 194.00,-0.80,11.25 194.40,0.00,11.25"/>
    </edge>
    <edge id=":AC0_10" function="internal">
        <lane id=":AC0_10_0" index="0" speed="8.00" length="8.26" shape="198.40,0.00,11.25 199.40,0.60,11.25 201.05,3.35,11.25 201.60,7.20,11.25"/>
    </edge>
    <edge id=":AC0_11" function="internal">
        <lane id=":AC0_11_0" index="0" speed="3.65" length="2.34" shape="194.40,0.00,11.25 194.00,0.80,11.25 192.80,1.60,11.25"/>
    </edge>
    <edge id=":AC1_0" function="internal">
        <lane id=":AC1_0_0" index="0" speed="100.00" length="14.40" shape="207.20,101.60,42.36 192.80,101.60,42.36"/>
    </edge>
    <edge id=":AC1_1" function="internal">
        <lane id=":AC1_1_0" index="0" speed="8.00" length="5.93" shape="207.20,101.60,42.36 203.35,101.05,42.36 201.60,100.00,42.36"/>
    </edge>
    <edge id=":AC1_2" function="internal">
        <lane id=":AC1_2_0" index="0" speed="3.65" length="2.34" shape="207.20,101.60,42.36 206.00,100.80,42.36 205.60,100.00,42.36"/>
    </edge>
    <edge id=":AC1_9" function="internal">
        <lane id=":AC1_9_0" index="0" speed="8.00" length="8.26" shape="201.60,100.00,42.36 200.60,99.40,42.36 198.95,96.65,42.36 198.40,92.80,42.36"/>
    </edge>
    <edge id=":AC1_10" function="internal">
        <lane id=":AC1_10_0" index="0" speed="3.65" length="2.34" shape="205.60,100.00,42.36 206.00,99.20,42.36 207.20,98.40,42.36"/>
    </edge>
    <edge id=":AC1_3" function="internal">
        <lane id=":AC1_3_0" index="0" speed="6.51" length="9.03" shape="201.60,92.80,42.36 201.95,95.25,42.36 203.00,97.00,42.36 204.75,98.05,42.36 207.20,98.40,42.36"/>
    </edge>
    <edge id=":AC1_4" function="internal">
        <lane id=":AC1_4_0" index="0" speed="8.00" length="14.19" shape="201.60,92.80,42.36 201.05,96.65,42.36 199.40,99.40,42.36 196.65,101.05,42.36 192.80,101.60,42.36"/>
    </edge>
    <edge id=":AC1_5" function="internal">
        <lane id=":AC1_5_0" index="0" speed="3.65" length="4.67" shape="201.60,92.80,42.36 200.80,94.00,42.36 200.00,94.40,42.36 199.20,94.00,42.36 198.40,92.80,42.36"/>
    </edge>
    <edge id=":AC1_6" function="internal">
        <lane id=":AC1_6_0" index="0" speed="6.51" length="9.03" shape="192.80,98.40,42.36 195.25,98.05,42.36 197.00,97.00,42.36 198.05,95.25,42.36 198.40,92.80,42.36"/>
    </edge>
    <edge id=":AC1_7" function="internal">
        <lane id=":AC1_7_0" index="0" speed="100.00" length="14.40" shape="192.80,98.40,42.36 207.20,98.40,42.36"/>
    </edge>
    <edge id=":AC1_8" function="internal">
        <lane id=":AC1_8_0" index="0" speed="3.65" length="2.34" shape="192.80,98.40,42.36 194.00,99.20,42.36 194.40,100.00,42.36"/>
    </edge>
    <edge id=":AC1_11" function="internal">
        <lane id=":AC1_11_0" index="0" speed="3.65" length="2.34" shape="194.40,100.00,42.36 194.00,100.80,42.36 192.80,101.60,42.36"/>
    </edge>
    <edge id=":AD0_0" function="internal">
        <lane id=":AD0_0_0" index="0" speed="6.51" length="9.03" shape="298.40,7.20,10.83 298.05,4.75,10.84 297.00,3.00,10.85 295.25,1.95,10.85 292.80,1.60,10.86"/>
    </edge>
    <edge id=":AD0_1" function="internal">
        <lane id=":AD0_1_0" index="0" speed="8.00" length="14.19" shape="298.40,7.20,10.83 298.95,3.35,10.83 300.60,0.60,10.83 303.35,-1.05,10.83 307.20,-1.60,10.83"/>
    </edge>
    <edge id=":AD0_2" function="internal">
        <lane id=":AD0_2_0" index="0" speed="3.65" length="4.67" shape="298.40,7.20,10.83 299.20,6.00,10.83 300.00,5.60,10.83 300.80,6.00,10.83 301.60,7.20,10.83"/>
    </edge>
    <edge id=":AD0_3" function="internal">
        <lane id=":AD0_3_0" index="0" speed="6.51" length="9.03" shape="307.20,1.60,10.83 304.75,1.95,10.83 303.00,3.00,10.83 301.95,4.75,10.83 301.60,7.20,10.83"/>
    </edge>
    <edge id=":AD0_4" function="internal">
        <lane id=":AD0_4_0" index="0" speed="100.00" length="14.40" shape="307.20,1.60,10.83 292.80,1.60,10.86"/>
    </edge>
    <edge id=":AD0_5" function="internal">
        <lane id=":AD0_5_0" index="0" speed="3.65" length="2.34" shape="307.20,1.60,10.83 306.00,0.80,10.83 305.60,0.00,10.83"/>
    </edge>
    <edge id=":AD0_9" function="internal">
        <lane id=":AD0_9_0" index="0" speed="3.65" length="2.34" shape="305.60,0.00,10.83 306.00,-0.80,10.83 307.20,-1.60,10.83"/>
    </edge>
    <edge id=":AD0_6" function="internal">
        <lane id=":AD0_6_0" index="0" speed="100.00" length="14.40" shape="292.80,-1.60,10.86 307.20,-1.60,10.83"/>
    </edge>
    <edge id=":AD0_7" function="internal">
        <lane id=":AD0_7_0" index="0" speed="8.00" length="5.93" shape="292.80,-1.60,10.86 296.65,-1.05,10.85 298.40,-0.00,10.85"/>
    </edge>
    <edge id=":AD0_8" function="internal">
        <lane id=":AD0_8_0" index="0" speed="3.65" length="2.34" shape="292.80,-1.60,10.86 294.00,-0.80,10.86 294.40,0.00,10.86"/>
    </edge>
    <edge id=":AD0_10" function="internal">
        <lane id=":AD0_10_0" index="0" speed="8.00" length="8.26" shape="298.40,-0.00,10.85 299.40,0.60,10.85 301.05,3.35,10.84 301.60,7.20,10.83"/>
    </edge>
    <edge id=":AD0_11" function="internal">
        <lane id=":AD0_11_0" index="0" speed="3.65" length="2.34" shape="294.40,0.00,10.86 294.00,0.80,10.86 292.80,1.60,10.86"/>
    </edge>
    <edge id=":AD1_0" function="internal">
        <lane id=":AD1_0_0" index="0" speed="100.00" length="14.40" shape="307.20,101.60,-25.42 292.80,101.60,-25.42"/>
    </edge>
    <edge id=":AD1_1" function="internal">
        <lane id=":AD1_1_0" index="0" speed="8.00" length="5.93" shape="307.20,101.60,-25.42 303.35,101.05,-25.42 301.60,100.00,-25.42"/>
    </edge>
    <edge id=":AD1_2" function="internal">
        <lane id=":AD1_2_0" index="0" speed="3.65" length="2.34" shape="307.20,101.60,-25.42 306.00,100.80,-25.42 305.60,100.00,-25.42"/>
    </edge>
    <edge id=":AD1_9" function="internal">
        <lane id=":AD1_9_0" index="0" speed="8.00" length="8.26" shape="301.60,100.00,-25.42 300.60,99.40,-25.42 298.95,96.65,-25.42 298.40,92.80,-25.42"/>
    </edge>
    <edge id=":AD1_10" function="internal">
        <lane id=":AD1_10_0" index="0" speed="3.65" length="2.34" shape="305.60,100.00,-25.42 306.00,99.20,-25.42 307.20,98.40,-25.42"/>
    </edge>
    <edge id=":AD1_3" function="internal">
        <lane id=":AD1_3_0" index="0" speed="6.51" length="9.03" shape="301.60,92.80,-25.42 301.95,95.25,-25.42 303.00,97.00,-25.42 304.75,98.05,-25.42 307.20,98.40,-25.42"/>
    </edge>
    <edge id=":AD1_4" function="internal">
        <lane id=":AD1_4_0" index="0" speed="8.00" length="14.19" shape="301.60,92.80,-25.42 301.05,96.65,-25.42 299.40,99.40,-25.42 296.65,101.05,-25.42 292.80,101.60,-25.42"/>
    </edge>
    <edge id=":AD1_5" function="internal">
        <lane id=":AD1_5_0" index="0" speed="3.65" length="4.67" shape="301.60,92.80,-25.42 300.80,94.00,-25.42 300.00,94.40,-25.42 299.20,94.00,-25.42 298.40,92.80,-25.42"/>
    </edge>
    <edge id=":AD1_6" function="internal">
        <lane id=":AD1_6_0" index="0" speed="6.51" length="9.03" shape="292.80,98.40,-25.42 295.25,98.05,-25.42 297.00,97.00,-25.42 298.05,95.25,-25.42 298.40,92.80,-25.42"/>
    </edge>
    <edge id=":AD1_7" function="internal">
        <lane id=":AD1_7_0" index="0" speed="100.00" length="14.40" shape="292.80,98.40,-25.42 307.20,98.40,-25.42"/>
    </edge>
    <edge id=":AD1_8" function="internal">
        <lane id=":AD1_8_0" index="0" speed="3.65" length="2.34" shape="292.80,98.40,-25.42 294.00,99.20,-25.42 294.40,100.00,-25.42"/>
    </edge>
    <edge id=":AD1_11" function="internal">
        <lane id=":AD1_11_0" index="0" speed="3.65" length="2.34" shape="294.40,100.00,-25.42 294.00,100.80,-25.42 292.80,101.60,-25.42"/>
    </edge>
    <edge id=":AE0_0" function="internal">
        <lane id=":AE0_0_0" index="0" speed="6.51" length="9.03" shape="398.40,7.20,0.05 398.05,4.75,0.05 397.00,3.00,0.05 395.25,1.95,0.05 392.80,1.60,0.05"/>
    </edge>
    <edge id=":AE0_1" function="internal">
        <lane id=":AE0_1_0" index="0" speed="8.00" length="14.19" shape="398.40,7.20,0.05 398.95,3.35,0.05 400.60,0.60,0.05 403.35,-1.05,0.05 407.20,-1.60,0.05"/>
    </edge>
    <edge id=":AE0_2" function="internal">
        <lane id=":AE0_2_0" index="0" speed="3.65" length="4.67" shape="398.40,7.20,0.05 399.20,6.00,0.05 400.00,5.60,0.05 400.80,6.00,0.05 401.60,7.20,0.05"/>
    </edge>
    <edge id=":AE0_3" function="internal">
        <lane id=":AE0_3_0" index="0" speed="6.51" length="9.03" shape="407.20,1.60,0.05 404.75,1.95,0.05 403.00,3.00,0.05 401.95,4.75,0.05 401.60,7.20,0.05"/>
    </edge>
    <edge id=":AE0_4" function="internal">
        <lane id=":AE0_4_0" index="0" speed="100.00" length="14.40" shape="407.20,1.60,0.05 392.80,1.60,0.05"/>
    </edge>
    <edge id=":AE0_5" function="internal">
        <lane id=":AE0_5_0" index="0" speed="3.65" length="2.34" shape="407.20,1.60,0.05 406.00,0.80,0.05 405.60,0.00,0.05"/>
    </edge>
    <edge id=":AE0_9" function="internal">
        <lane id=":AE0_9_0" index="0" speed="3.65" length="2.34" shape="405.60,0.00,0.05 406.00,-0.80,0.05 407.20,-1.60,0.05"/>
    </edge>
    <edge id=":AE0_6" function="internal">
        <lane id=":AE0_6_0" index="0" speed="100.00" length="14.40" shape="392.80,-1.60,0.05 407.20,-1.60,0.05"/>
    </edge>
    <edge id=":AE0_7" function="internal">
        <lane id=":AE0_7_0" index="0" speed="8.00" length="5.93" shape="392.80,-1.60,0.05 396.65,-1.05,0.05 398.40,-0.00,0.05"/>
    </edge>
    <edge id=":AE0_8" function="internal">
        <lane id=":AE0_8_0" index="0" speed="3.65" length="2.34" shape="392.80,-1.60,0.05 394.00,-0.80,0.05 394.40,0.00,0.05"/>
    </edge>
    <edge id=":AE0_10" function="internal">
        <lane id=":AE0_10_0" index="0" speed="8.00" length="8.26" shape="398.40,-0.00,0.05 399.40,0.60,0.05 401.05,3.35,0.05 401.60,7.20,0.05"/>
    </edge>
    <edge id=":AE0_11" function="internal">
        <lane id=":AE0_11_0" index="0" speed="3.65" length="2.34" shape="394.40,0.00,0.05 394.00,0.80,0.05 392.80,1.60,0.05"/>
    </edge>
    <edge id=":AE1_0" function="internal">
        <lane id=":AE1_0_0" index="0" speed="100.00" length="14.40" shape="407.20,101.60,33.37 392.80,101.60,33.37"/>
    </edge>
    <edge id=":AE1_1" function="internal">
        <lane id=":AE1_1_0" index="0" speed="8.00" length="5.93" shape="407.20,101.60,33.37 403.35,101.05,33.37 401.60,100.00,33.37"/>
    </edge>
    <edge id=":AE1_2" function="internal">
        <lane id=":AE1_2_0" index="0" speed="3.65" length="2.34" shape="407.20,101.60,33.37 406.00,100.80,33.37 405.60,100.00,33.37"/>
    </edge>
    <edge id=":AE1_9" function="internal">
        <lane id=":AE1_9_0" index="0" speed="8.00" length="8.26" shape="401.60,100.00,33.37 400.60,99.40,33.37 398.95,96.65,33.37 398.40,92.80,33.37"/>
    </edge>
    <edge id=":AE1_10" function="internal">
        <lane id=":AE1_10_0" index="0" speed="3.65" length="2.34" shape="405.60,100.00,33.37 406.00,99.20,33.37 407.20,98.40,33.37"/>
    </edge>
    <edge id=":AE1_3" function="internal">
        <lane id=":AE1_3_0" index="0" speed="6.51" length="9.03" shape="401.60,92.80,33.37 401.95,95.25,33.37 403.00,97.00,33.37 404.75,98.05,33.37 407.20,98.40,33.37"/>
    </edge>
    <edge id=":AE1_4" function="internal">
        <lane id=":AE1_4_0" index="0" speed="8.00" length="14.19" shape="401.60,92.80,33.37 401.05,96.65,33.37 399.40,99.40,33.37 396.65,101.05,33.37 392.80,101.60,33.37"/>
    </edge>
    <edge id=":AE1_5" function="internal">
        <lane id=":AE1_5_0" index="0" speed="3.65" length="4.67" shape="401.60,92.80,33.37 400.80,94.00,33.37 400.00,94.40,33.37 399.20,94.00,33.37 398.40,92.80,33.37"/>
    </edge>
    <edge id=":AE1_6" function="internal">
        <lane id=":AE1_6_0" index="0" speed="6.51" length="9.03" shape="392.80,98.40,33.37 395.25,98.05,33.37 397.00,97.00,33.37 398.05,95.25,33.37 398.40,92.80,33.37"/>
    </edge>
    <edge id=":AE1_7" function="internal">
        <lane id=":AE1_7_0" index="0" speed="100.00" length="14.40" shape="392.80,98.40,33.37 407.20,98.40,33.37"/>
    </edge>
    <edge id=":AE1_8" function="internal">
        <lane id=":AE1_8_0" index="0" speed="3.65" length="2.34" shape="392.80,98.40,33.37 394.00,99.20,33.37 394.40,100.00,33.37"/>
    </edge>
    <edge id=":AE1_11" function="internal">
        <lane id=":AE1_11_0" index="0" speed="3.65" length="2.34" shape="394.40,100.00,33.37 394.00,100.80,33.37 392.80,101.60,33.37"/>
    </edge>
    <edge id=":AF0_0" function="internal">
        <lane id=":AF0_0_0" index="0" speed="6.51" length="9.03" shape="498.40,7.20,-11.26 498.05,4.75,-11.26 497.00,3.00,-11.26 495.25,1.95,-11.26 492.80,1.60,-11.26"/>
    </edge>
    <edge id=":AF0_1" function="internal">
        <lane id=":AF0_1_0" index="0" speed="8.00" length="14.19" shape="498.40,7.20,-11.26 498.95,3.35,-11.26 500.60,0.60,-11.26 503.35,-1.05,-11.26 507.20,-1.60,-11.26"/>
    </edge>
    <edge id=":AF0_2" function="internal">
        <lane id=":AF0_2_0" index="0" speed="3.65" length="4.67" shape="498.40,7.20,-11.26 499.20,6.00,-11.26 500.00,5.60,-11.26 500.80,6.00,-11.26 501.60,7.20,-11.26"/>
    </edge>
    <edge id=":AF0_3" function="internal">
        <lane id=":AF0_3_0" index="0" speed="6.51" length="9.03" shape="507.20,1.60,-11.26 504.75,1.95,-11.26 503.00,3.00,-11.26 501.95,4.75,-11.26 501.60,7.20,-11.26"/>
    </edge>
    <edge id=":AF0_4" function="internal">
        <lane id=":AF0_4_0" index="0" speed="100.00" length="14.40" shape="507.20,1.60,-11.26 492.80,1.60,-11.26"/>
    </edge>
    <edge id=":AF0_5" function="internal">
        <lane id=":AF0_5_0" index="0" speed="3.65" length="2.34" shape="507.20,1.60,-11.26 506.00,0.80,-11.26 505.60,0.00,-11.26"/>
    </edge>
    <edge id=":AF0_9" function="internal">
        <lane id=":AF0_9_0" index="0" speed="3.65" length="2.34" shape="505.60,0.00,-11.26 506.00,-0.80,-11.26 507.20,-1.60,-11.26"/>
    </edge>
    <edge id=":AF0_6" function="internal">
        <lane id=":AF0_6_0" index="0" speed="100.00" length="14.40" shape="492.80,-1.60,-11.26 507.20,-1.60,-11.26"/>
    </edge>
    <edge id=":AF0_7" function="internal">
        <lane id=":AF0_7_0" index="0" speed="8.00" length="5.93" shape="492.80,-1.60,-11.26 496.65,-1.05,-11.26 498.40,-0.00,-11.26"/>
    </edge>
    <edge id=":AF0_8" function="internal">
        <lane id=":AF0_8_0" index="0" speed="3.65" length="2.34" shape="492.80,-1.60,-11.26 494.00,-0.80,-11.26 494.40,0.00,-11.26"/>
    </edge>
    <edge id=":AF0_10" function="internal">
        <lane id=":AF0_10_0" index="0" speed="8.00" length="8.26" shape="498.40,-0.00,-11.26 499.40,0.60,-11.26 501.05,3.35,-11.26 501.60,7.20,-11.26"/>
    </edge>
    <edge id=":AF0_11" function="internal">
        <lane id=":AF0_11_0" index="0" speed="3.65" length="2.34" shape="494.40,0.00,-11.26 494.00,0.80,-11.26 492.80,1.60,-11.26"/>
    </edge>
    <edge id=":AF1_0" function="internal">
        <lane id=":AF1_0_0" index="0" speed="100.00" length="14.40" shape="507.20,101.60,10.86 492.80,101.60,10.86"/>
    </edge>
    <edge id=":AF1_1" function="internal">
        <lane id=":AF1_1_0" index="0" speed="8.00" length="5.93" shape="507.20,101.60,10.86 503.35,101.05,10.86 501.60,100.00,10.86"/>
    </edge>
    <edge id=":AF1_2" function="internal">
        <lane id=":AF1_2_0" index="0" speed="3.65" length="2.34" shape="507.20,101.60,10.86 506.00,100.80,10.86 505.60,100.00,10.86"/>
    </edge>
    <edge id=":AF1_9" function="internal">
        <lane id=":AF1_9_0" index="0" speed="8.00" length="8.26" shape="501.60,100.00,10.86 500.60,99.40,10.86 498.95,96.65,10.86 498.40,92.80,10.86"/>
    </edge>
    <edge id=":AF1_10" function="internal">
        <lane id=":AF1_10_0" index="0" speed="3.65" length="2.34" shape="505.60,100.00,10.86 506.00,99.20,10.86 507.20,98.40,10.86"/>
    </edge>
    <edge id=":AF1_3" function="internal">
        <lane id=":AF1_3_0" index="0" speed="6.51" length="9.03" shape="501.60,92.80,10.86 501.95,95.25,10.86 503.00,97.00,10.86 504.75,98.05,10.86 507.20,98.40,10.86"/>
    </edge>
    <edge id=":AF1_4" function="internal">
        <lane id=":AF1_4_0" index="0" speed="8.00" length="14.19" shape="501.60,92.80,10.86 501.05,96.65,10.86 499.40,99.40,10.86 496.65,101.05,10.86 492.80,101.60,10.86"/>
    </edge>
    <edge id=":AF1_5" function="internal">
        <lane id=":AF1_5_0" index="0" speed="3.65" length="4.67" shape="501.60,92.80,10.86 500.80,94.00,10.86 500.00,94.40,10.86 499.20,94.00,10.86 498.40,92.80,10.86"/>
    </edge>
    <edge id=":AF1_6" function="internal">
        <lane id=":AF1_6_0" index="0" speed="6.51" length="9.03" shape="492.80,98.40,10.86 495.25,98.05,10.86 497.00,97.00,10.86 498.05,95.25,10.86 498.40,92.80,10.86"/>
    </edge>
    <edge id=":AF1_7" function="internal">
        <lane id=":AF1_7_0" index="0" speed="100.00" length="14.40" shape="492.80,98.40,10.86 507.20,98.40,10.86"/>
    </edge>
    <edge id=":AF1_8" function="internal">
        <lane id=":AF1_8_0" index="0" speed="3.65" length="2.34" shape="492.80,98.40,10.86 494.00,99.20,10.86 494.40,100.00,10.86"/>
    </edge>
    <edge id=":AF1_11" function="internal">
        <lane id=":AF1_11_0" index="0" speed="3.65" length="2.34" shape="494.40,100.00,10.86 494.00,100.80,10.86 492.80,101.60,10.86"/>
    </edge>
    <edge id=":AG0_0" function="internal">
        <lane id=":AG0_0_0" index="0" speed="6.51" length="9.03" shape="598.40,7.20,18.26 598.05,4.75,18.26 597.00,3.00,18.26 595.25,1.95,18.26 592.80,1.60,18.26"/>
    </edge>
    <edge id=":AG0_1" function="internal">
        <lane id=":AG0_1_0" index="0" speed="8.00" length="14.19" shape="598.40,7.20,18.26 598.95,3.35,18.26 600.60,0.60,18.26 603.35,-1.05,18.26 607.20,-1.60,18.26"/>
    </edge>
    <edge id=":AG0_2" function="internal">
        <lane id=":AG0_2_0" index="0" speed="3.65" length="4.67" shape="598.40,7.20,18.26 599.20,6.00,18.26 600.00,5.60,18.26 600.80,6.00,18.26 601.60,7.20,18.26"/>
    </edge>
    <edge id=":AG0_3" function="internal">
        <lane id=":AG0_3_0" index="0" speed="6.51" length="9.03" shape="607.20,1.60,18.26 604.75,1.95,18.26 603.00,3.00,18.26 601.95,4.75,18.26 601.60,7.20,18.26"/>
    </edge>
    <edge id=":AG0_4" function="internal">
        <lane id=":AG0_4_0" index="0" speed="100.00" length="14.40" shape="607.20,1.60,18.26 592.80,1.60,18.26"/>
    </edge>
    <edge id=":AG0_5" function="internal">
        <lane id=":AG0_5_0" index="0" speed="3.65" length="2.34" shape="607.20,1.60,18.26 606.00,0.80,18.26 605.60,0.00,18.26"/>
    </edge>
    <edge id=":AG0_9" function="internal">
        <lane id=":AG0_9_0" index="0" speed="3.65" length="2.34" shape="605.60,0.00,18.26 606.00,-0.80,18.26 607.20,-1.60,18.26"/>
    </edge>
    <edge id=":AG0_6" function="internal">
        <lane id=":AG0_6_0" index="0" speed="100.00" length="14.40" shape="592.80,-1.60,18.26 607.20,-1.60,18.26"/>
    </edge>
    <edge id=":AG0_7" function="internal">
        <lane id=":AG0_7_0" index="0" speed="8.00" length="5.93" shape="592.80,-1.60,18.26 596.65,-1.05,18.26 598.40,0.00,18.26"/>
    </edge>
    <edge id=":AG0_8" function="internal">
        <lane id=":AG0_8_0" index="0" speed="3.65" length="2.34" shape="592.80,-1.60,18.26 594.00,-0.80,18.26 594.40,0.00,18.26"/>
    </edge>
    <edge id=":AG0_10" function="internal">
        <lane id=":AG0_10_0" index="0" speed="8.00" length="8.26" shape="598.40,0.00,18.26 599.40,0.60,18.26 601.05,3.35,18.26 601.60,7.20,18.26"/>
    </edge>
    <edge id=":AG0_11" function="internal">
        <lane id=":AG0_11_0" index="0" speed="3.65" length="2.34" shape="594.40,0.00,18.26 594.00,0.80,18.26 592.80,1.60,18.26"/>
    </edge>
    <edge id=":AG1_0" function="internal">
        <lane id=":AG1_0_0" index="0" speed="100.00" length="14.40" shape="607.20,101.60,14.44 592.80,101.60,14.44"/>
    </edge>
    <edge id=":AG1_1" function="internal">
        <lane id=":AG1_1_0" index="0" speed="8.00" length="5.93" shape="607.20,101.60,14.44 603.35,101.05,14.44 601.60,100.00,14.44"/>
    </edge>
    <edge id=":AG1_2" function="internal">
        <lane id=":AG1_2_0" index="0" speed="3.65" length="2.34" shape="607.20,101.60,14.44 606.00,100.80,14.44 605.60,100.00,14.44"/>
    </edge>
    <edge id=":AG1_9" function="internal">
        <lane id=":AG1_9_0" index="0" speed="8.00" length="8.26" shape="601.60,100.00,14.44 600.60,99.40,14.44 598.95,96.65,14.44 598.40,92.80,14.44"/>
    </edge>
    <edge id=":AG1_10" function="internal">
        <lane id=":AG1_10_0" index="0" speed="3.65" length="2.34" shape="605.60,100.00,14.44 606.00,99.20,14.44 607.20,98.40,14.44"/>
    </edge>
    <edge id=":AG1_3" function="internal">
        <lane id=":AG1_3_0" index="0" speed="6.51" length="9.03" shape="601.60,92.80,14.44 601.95,95.25,14.44 603.00,97.00,14.44 604.75,98.05,14.44 607.20,98.40,14.44"/>
    </edge>
    <edge id=":AG1_4" function="internal">
        <lane id=":AG1_4_0" index="0" speed="8.00" length="14.19" shape="601.60,92.80,14.44 601.05,96.65,14.44 599.40,99.40,14.44 596.65,101.05,14.44 592.80,101.60,14.44"/>
    </edge>
    <edge id=":AG1_5" function="internal">
        <lane id=":AG1_5_0" index="0" speed="3.65" length="4.67" shape="601.60,92.80,14.44 600.80,94.00,14.44 600.00,94.40,14.44 599.20,94.00,14.44 598.40,92.80,14.44"/>
    </edge>
    <edge id=":AG1_6" function="internal">
        <lane id=":AG1_6_0" index="0" speed="6.51" length="9.03" shape="592.80,98.40,14.44 595.25,98.05,14.44 597.00,97.00,14.44 598.05,95.25,14.44 598.40,92.80,14.44"/>
    </edge>
    <edge id=":AG1_7" function="internal">