<?xml version="1.0" encoding="UTF-8"?>

<!-- generated on 08/04/20 22:15:04 by Eclipse SUMO netgenerate Version 1.5.0
<configuration xmlns:xsi="http://www.w3.org/2001/XMLSchema-instance" xsi:noNamespaceSchemaLocation="http://sumo.dlr.de/xsd/netgenerateConfiguration.xsd">

    <grid_network>
        <grid value="true"/>
        <grid.x-number value="51"/>
        <grid.y-number value="2"/>
    </grid_network>

    <output>
        <output-file value="3.net.xml"/>
    </output>

    <processing>
        <perturb-z value="7"/>
    </processing>

    <building_defaults>
        <default.speed value="100"/>
    </building_defaults>

    <random_number>
        <seed value="209369489"/>
    </random_number>

</configuration>
-->

<net version="1.3" junctionCornerDetail="5" limitTurnSpeed="5.50" xmlns:xsi="http://www.w3.org/2001/XMLSchema-instance" xsi:noNamespaceSchemaLocation="http://sumo.dlr.de/xsd/net_file.xsd">

    <location netOffset="0.00,0.00" convBoundary="0.00,0.00,5000.00,100.00" origBoundary="0.00,0.00,5000.00,100.00" projParameter="!"/>

    <edge id=":AA0_0" function="internal">
        <lane id=":AA0_0_0" index="0" speed="6.08" length="7.75" shape="-1.60,3.20,-3.30 -1.30,1.10,-3.39 -0.40,-0.40,-3.46 1.10,-1.30,-3.54 3.20,-1.60,-3.62"/>
    </edge>
    <edge id=":AA0_1" function="internal">
        <lane id=":AA0_1_0" index="0" speed="3.90" length="2.60" shape="3.20,1.60,-3.63 2.50,1.70,-3.54 2.00,2.00,-3.47 1.70,2.50,-3.39 1.60,3.20,-3.30"/>
    </edge>
    <edge id=":AA1_0" function="internal">
        <lane id=":AA1_0_0" index="0" speed="6.08" length="7.74" shape="3.20,101.60,3.01 1.10,101.30,3.04 -0.40,100.40,3.06 -1.30,98.90,3.08 -1.60,96.80,3.11"/>
    </edge>
    <edge id=":AA1_1" function="internal">
        <lane id=":AA1_1_0" index="0" speed="3.90" length="2.58" shape="1.60,96.80,3.11 1.70,97.50,3.09 2.00,98.00,3.07 2.50,98.30,3.05 3.20,98.40,3.03"/>
    </edge>
    <edge id=":AB0_0" function="internal">
        <lane id=":AB0_0_0" index="0" speed="6.51" length="9.03" shape="98.40,7.20,-6.66 98.05,4.75,-6.68 97.00,3.00,-6.69 95.25,1.95,-6.71 92.80,1.60,-6.72"/>
    </edge>
    <edge id=":AB0_1" function="internal">
        <lane id=":AB0_1_0" index="0" speed="8.00" length="14.19" shape="98.40,7.20,-6.66 98.95,3.35,-6.68 100.60,0.60,-6.69 103.35,-1.05,-6.71 107.20,-1.60,-6.72"/>
    </edge>
    <edge id=":AB0_2" function="internal">
        <lane id=":AB0_2_0" index="0" speed="3.65" length="4.67" shape="98.40,7.20,-6.66 99.20,6.00,-6.66 100.00,5.60,-6.66 100.80,6.00,-6.66 101.60,7.20,-6.66"/>
    </edge>
    <edge id=":AB0_3" function="internal">
        <lane id=":AB0_3_0" index="0" speed="6.51" length="9.03" shape="107.20,1.60,-6.72 104.75,1.95,-6.71 103.00,3.00,-6.69 101.95,4.75,-6.68 101.60,7.20,-6.66"/>
    </edge>
    <edge id=":AB0_4" function="internal">
        <lane id=":AB0_4_0" index="0" speed="100.00" length="14.40" shape="107.20,1.60,-6.72 92.80,1.60,-6.72"/>
    </edge>
    <edge id=":AB0_5" function="internal">
        <lane id=":AB0_5_0" index="0" speed="3.65" length="2.34" shape="107.20,1.60,-6.72 106.00,0.80,-6.72 105.60,0.00,-6.72"/>
    </edge>
    <edge id=":AB0_9" function="internal">
        <lane id=":AB0_9_0" index="0" speed="3.65" length="2.34" shape="105.60,0.00,-6.72 106.00,-0.80,-6.72 107.20,-1.60,-6.72"/>
    </edge>
    <edge id=":AB0_6" function="internal">
        <lane id=":AB0_6_0" index="0" speed="100.00" length="14.40" shape="92.80,-1.60,-6.72 107.20,-1.60,-6.72"/>
    </edge>
    <edge id=":AB0_7" function="internal">
        <lane id=":AB0_7_0" index="0" speed="8.00" length="5.93" shape="92.80,-1.60,-6.72 96.65,-1.05,-6.71 98.40,-0.00,-6.70"/>
    </edge>
    <edge id=":AB0_8" function="internal">
        <lane id=":AB0_8_0" index="0" speed="3.65" length="2.34" shape="92.80,-1.60,-6.72 94.00,-0.80,-6.72 94.40,0.00,-6.72"/>
    </edge>
    <edge id=":AB0_10" function="internal">
        <lane id=":AB0_10_0" index="0" speed="8.00" length="8.26" shape="98.40,-0.00,-6.70 99.40,0.60,-6.69 101.05,3.35,-6.68 101.60,7.20,-6.66"/>
    </edge>
    <edge id=":AB0_11" function="internal">
        <lane id=":AB0_11_0" index="0" speed="3.65" length="2.34" shape="94.40,0.00,-6.72 94.00,0.80,-6.72 92.80,1.60,-6.72"/>
    </edge>
    <edge id=":AB1_0" function="internal">
        <lane id=":AB1_0_0" index="0" speed="100.00" length="14.40" shape="107.20,101.60,-5.89 92.80,101.60,-5.89"/>
    </edge>
    <edge id=":AB1_1" function="internal">
        <lane id=":AB1_1_0" index="0" speed="8.00" length="5.93" shape="107.20,101.60,-5.89 103.35,101.05,-5.91 101.60,100.00,-5.92"/>
    </edge>
    <edge id=":AB1_2" function="internal">
        <lane id=":AB1_2_0" index="0" speed="3.65" length="2.34" shape="107.20,101.60,-5.89 106.00,100.80,-5.89 105.60,100.00,-5.89"/>
    </edge>
    <edge id=":AB1_9" function="internal">
        <lane id=":AB1_9_0" index="0" speed="8.00" length="8.26" shape="101.60,100.00,-5.92 100.60,99.40,-5.92 98.95,96.65,-5.94 98.40,92.80,-5.95"/>
    </edge>
    <edge id=":AB1_10" function="internal">
        <lane id=":AB1_10_0" index="0" speed="3.65" length="2.34" shape="105.60,100.00,-5.89 106.00,99.20,-5.89 107.20,98.40,-5.89"/>
    </edge>
    <edge id=":AB1_3" function="internal">
        <lane id=":AB1_3_0" index="0" speed="6.51" length="9.03" shape="101.60,92.80,-5.95 101.95,95.25,-5.94 103.00,97.00,-5.92 104.75,98.05,-5.91 107.20,98.40,-5.89"/>
    </edge>
    <edge id=":AB1_4" function="internal">
        <lane id=":AB1_4_0" index="0" speed="8.00" length="14.19" shape="101.60,92.80,-5.95 101.05,96.65,-5.94 99.40,99.40,-5.92 96.65,101.05,-5.91 92.80,101.60,-5.89"/>
    </edge>
    <edge id=":AB1_5" function="internal">
        <lane id=":AB1_5_0" index="0" speed="3.65" length="4.67" shape="101.60,92.80,-5.95 100.80,94.00,-5.95 100.00,94.40,-5.95 99.20,94.00,-5.95 98.40,92.80,-5.95"/>
    </edge>
    <edge id=":AB1_6" function="internal">
        <lane id=":AB1_6_0" index="0" speed="6.51" length="9.03" shape="92.80,98.40,-5.89 95.25,98.05,-5.91 97.00,97.00,-5.92 98.05,95.25,-5.94 98.40,92.80,-5.95"/>
    </edge>
    <edge id=":AB1_7" function="internal">
        <lane id=":AB1_7_0" index="0" speed="100.00" length="14.40" shape="92.80,98.40,-5.89 107.20,98.40,-5.89"/>
    </edge>
    <edge id=":AB1_8" function="internal">
        <lane id=":AB1_8_0" index="0" speed="3.65" length="2.34" shape="92.80,98.40,-5.89 94.00,99.20,-5.89 94.40,100.00,-5.89"/>
    </edge>
    <edge id=":AB1_11" function="internal">
        <lane id=":AB1_11_0" index="0" speed="3.65" length="2.34" shape="94.40,100.00,-5.89 94.00,100.80,-5.89 92.80,101.60,-5.89"/>
    </edge>
    <edge id=":AC0_0" function="internal">
        <lane id=":AC0_0_0" index="0" speed="6.51" length="9.03" shape="198.40,7.20,4.96 198.05,4.75,4.96 197.00,3.00,4.96 195.25,1.95,4.96 192.80,1.60,4.96"/>
    </edge>
    <edge id=":AC0_1" function="internal">
        <lane id=":AC0_1_0" index="0" speed="8.00" length="14.19" shape="198.40,7.20,4.96 198.95,3.35,4.96 200.60,0.60,4.96 203.35,-1.05,4.96 207.20,-1.60,4.96"/>
    </edge>
    <edge id=":AC0_2" function="internal">
        <lane id=":AC0_2_0" index="0" speed="3.65" length="4.67" shape="198.40,7.20,4.96 199.20,6.00,4.96 200.00,5.60,4.96 200.80,6.00,4.96 201.60,7.20,4.96"/>
    </edge>
    <edge id=":AC0_3" function="internal">
        <lane id=":AC0_3_0" index="0" speed="6.51" length="9.03" shape="207.20,1.60,4.96 204.75,1.95,4.96 203.00,3.00,4.96 201.95,4.75,4.96 201.60,7.20,4.96"/>
    </edge>
    <edge id=":AC0_4" function="internal">
        <lane id=":AC0_4_0" index="0" speed="100.00" length="14.40" shape="207.20,1.60,4.96 192.80,1.60,4.96"/>
    </edge>
    <edge id=":AC0_5" function="internal">
        <lane id=":AC0_5_0" index="0" speed="3.65" length="2.34" shape="207.20,1.60,4.96 206.00,0.80,4.96 205.60,0.00,4.96"/>
    </edge>
    <edge id=":AC0_9" function="internal">
        <lane id=":AC0_9_0" index="0" speed="3.65" length="2.34" shape="205.60,0.00,4.96 206.00,-0.80,4.96 207.20,-1.60,4.96"/>
    </edge>
    <edge id=":AC0_6" function="internal">
        <lane id=":AC0_6_0" index="0" speed="100.00" length="14.40" shape="192.80,-1.60,4.96 207.20,-1.60,4.96"/>
    </edge>
    <edge id=":AC0_7" function="internal">
        <lane id=":AC0_7_0" index="0" speed="8.00" length="5.93" shape="192.80,-1.60,4.96 196.65,-1.05,4.96 198.40,0.00,4.96"/>
    </edge>
    <edge id=":AC0_8" function="internal">
        <lane id=":AC0_8_0" index="0" speed="3.65" length="2.34" shape="192.80,-1.60,4.96 194.00,-0.80,4.96 194.40,0.00,4.96"/>
    </edge>
    <edge id=":AC0_10" function="internal">
        <lane id=":AC0_10_0" index="0" speed="8.00" length="8.26" shape="198.40,0.00,4.96 199.40,0.60,4.96 201.05,3.35,4.96 201.60,7.20,4.96"/>
    </edge>
    <edge id=":AC0_11" function="internal">
        <lane id=":AC0_11_0" index="0" speed="3.65" length="2.34" shape="194.40,0.00,4.96 194.00,0.80,4.96 192.80,1.60,4.96"/>
    </edge>
    <edge id=":AC1_0" function="internal">
        <lane id=":AC1_0_0" index="0" speed="100.00" length="14.40" shape="207.20,101.60,0.06 192.80,101.60,-0.10"/>
    </edge>
    <edge id=":AC1_1" function="internal">
        <lane id=":AC1_1_0" index="0" speed="8.00" length="5.93" shape="207.20,101.60,0.06 203.35,101.05,0.02 201.60,100.00,-0.01"/>
    </edge>
    <edge id=":AC1_2" function="internal">
        <lane id=":AC1_2_0" index="0" speed="3.65" length="2.34" shape="207.20,101.60,0.06 206.00,100.80,0.06 205.60,100.00,0.06"/>
    </edge>
    <edge id=":AC1_9" function="internal">
        <lane id=":AC1_9_0" index="0" speed="8.00" length="8.26" shape="201.60,100.00,-0.01 200.60,99.40,-0.02 198.95,96.65,-0.06 198.40,92.80,-0.10"/>
    </edge>
    <edge id=":AC1_10" function="internal">
        <lane id=":AC1_10_0" index="0" speed="3.65" length="2.34" shape="205.60,100.00,0.06 206.00,99.20,0.06 207.20,98.40,0.06"/>
    </edge>
    <edge id=":AC1_3" function="internal">
        <lane id=":AC1_3_0" index="0" speed="6.51" length="9.03" shape="201.60,92.80,-0.10 201.95,95.25,-0.06 203.00,97.00,-0.02 204.75,98.05,0.02 207.20,98.40,0.06"/>
    </edge>
    <edge id=":AC1_4" function="internal">
        <lane id=":AC1_4_0" index="0" speed="8.00" length="14.19" shape="201.60,92.80,-0.10 201.05,96.65,-0.10 199.40,99.40,-0.10 196.65,101.05,-0.10 192.80,101.60,-0.10"/>
    </edge>
    <edge id=":AC1_5" function="internal">
        <lane id=":AC1_5_0" index="0" speed="3.65" length="4.67" shape="201.60,92.80,-0.10 200.80,94.00,-0.10 200.00,94.40,-0.10 199.20,94.00,-0.10 198.40,92.80,-0.10"/>
    </edge>
    <edge id=":AC1_6" function="internal">
        <lane id=":AC1_6_0" index="0" speed="6.51" length="9.03" shape="192.80,98.40,-0.10 195.25,98.05,-0.10 197.00,97.00,-0.10 198.05,95.25,-0.10 198.40,92.80,-0.10"/>
    </edge>
    <edge id=":AC1_7" function="internal">
        <lane id=":AC1_7_0" index="0" speed="100.00" length="14.40" shape="192.80,98.40,-0.10 207.20,98.40,0.06"/>
    </edge>
    <edge id=":AC1_8" function="internal">
        <lane id=":AC1_8_0" index="0" speed="3.65" length="2.34" shape="192.80,98.40,-0.10 194.00,99.20,-0.10 194.40,100.00,-0.10"/>
    </edge>
    <edge id=":AC1_11" function="internal">
        <lane id=":AC1_11_0" index="0" speed="3.65" length="2.34" shape="194.40,100.00,-0.10 194.00,100.80,-0.10 192.80,101.60,-0.10"/>
    </edge>
    <edge id=":AD0_0" function="internal">
        <lane id=":AD0_0_0" index="0" speed="6.51" length="9.03" shape="298.40,7.20,-8.06 298.05,4.75,-8.06 297.00,3.00,-8.06 295.25,1.95,-8.06 292.80,1.60,-8.06"/>
    </edge>
    <edge id=":AD0_1" function="internal">
        <lane id=":AD0_1_0" index="0" speed="8.00" length="14.19" shape="298.40,7.20,-8.06 298.95,3.35,-8.06 300.60,0.60,-8.06 303.35,-1.05,-8.06 307.20,-1.60,-8.06"/>
    </edge>
    <edge id=":AD0_2" function="internal">
        <lane id=":AD0_2_0" index="0" speed="3.65" length="4.67" shape="298.40,7.20,-8.06 299.20,6.00,-8.06 300.00,5.60,-8.06 300.80,6.00,-8.06 301.60,7.20,-8.06"/>
    </edge>
    <edge id=":AD0_3" function="internal">
        <lane id=":AD0_3_0" index="0" speed="6.51" length="9.03" shape="307.20,1.60,-8.06 304.75,1.95,-8.06 303.00,3.00,-8.06 301.95,4.75,-8.06 301.60,7.20,-8.06"/>
    </edge>
    <edge id=":AD0_4" function="internal">
        <lane id=":AD0_4_0" index="0" speed="100.00" length="14.40" shape="307.20,1.60,-8.06 292.80,1.60,-8.06"/>
    </edge>
    <edge id=":AD0_5" function="internal">
        <lane id=":AD0_5_0" index="0" speed="3.65" length="2.34" shape="307.20,1.60,-8.06 306.00,0.80,-8.06 305.60,0.00,-8.06"/>
    </edge>
    <edge id=":AD0_9" function="internal">
        <lane id=":AD0_9_0" index="0" speed="3.65" length="2.34" shape="305.60,0.00,-8.06 306.00,-0.80,-8.06 307.20,-1.60,-8.06"/>
    </edge>
    <edge id=":AD0_6" function="internal">
        <lane id=":AD0_6_0" index="0" speed="100.00" length="14.40" shape="292.80,-1.60,-8.06 307.20,-1.60,-8.06"/>
    </edge>
    <edge id=":AD0_7" function="internal">
        <lane id=":AD0_7_0" index="0" speed="8.00" length="5.93" shape="292.80,-1.60,-8.06 296.65,-1.05,-8.06 298.40,-0.00,-8.06"/>
    </edge>
    <edge id=":AD0_8" function="internal">
        <lane id=":AD0_8_0" index="0" speed="3.65" length="2.34" shape="292.80,-1.60,-8.06 294.00,-0.80,-8.06 294.40,0.00,-8.06"/>
    </edge>
    <edge id=":AD0_10" function="internal">
        <lane id=":AD0_10_0" index="0" speed="8.00" length="8.26" shape="298.40,-0.00,-8.06 299.40,0.60,-8.06 301.05,3.35,-8.06 301.60,7.20,-8.06"/>
    </edge>
    <edge id=":AD0_11" function="internal">
        <lane id=":AD0_11_0" index="0" speed="3.65" length="2.34" shape="294.40,0.00,-8.06 294.00,0.80,-8.06 292.80,1.60,-8.06"/>
    </edge>
    <edge id=":AD1_0" function="internal">
        <lane id=":AD1_0_0" index="0" speed="100.00" length="14.40" shape="307.20,101.60,2.14 292.80,101.60,1.98"/>
    </edge>
    <edge id=":AD1_1" function="internal">
        <lane id=":AD1_1_0" index="0" speed="8.00" length="5.93" shape="307.20,101.60,2.14 303.35,101.05,2.14 301.60,100.00,2.14"/>
    </edge>
    <edge id=":AD1_2" function="internal">
        <lane id=":AD1_2_0" index="0" speed="3.65" length="2.34" shape="307.20,101.60,2.14 306.00,100.80,2.14 305.60,100.00,2.14"/>
    </edge>
    <edge id=":AD1_9" function="internal">
        <lane id=":AD1_9_0" index="0" speed="8.00" length="8.26" shape="301.60,100.00,2.14 300.60,99.40,2.14 298.95,96.65,2.14 298.40,92.80,2.14"/>
    </edge>
    <edge id=":AD1_10" function="internal">
        <lane id=":AD1_10_0" index="0" speed="3.65" length="2.34" shape="305.60,100.00,2.14 306.00,99.20,2.14 307.20,98.40,2.14"/>
    </edge>
    <edge id=":AD1_3" function="internal">
        <lane id=":AD1_3_0" index="0" speed="6.51" length="9.03" shape="301.60,92.80,2.14 301.95,95.25,2.14 303.00,97.00,2.14 304.75,98.05,2.14 307.20,98.40,2.14"/>
    </edge>
    <edge id=":AD1_4" function="internal">
        <lane id=":AD1_4_0" index="0" speed="8.00" length="14.19" shape="301.60,92.80,2.14 301.05,96.65,2.10 299.40,99.40,2.06 296.65,101.05,2.02 292.80,101.60,1.98"/>
    </edge>
    <edge id=":AD1_5" function="internal">
        <lane id=":AD1_5_0" index="0" speed="3.65" length="4.67" shape="301.60,92.80,2.14 300.80,94.00,2.14 300.00,94.40,2.14 299.20,94.00,2.14 298.40,92.80,2.14"/>
    </edge>
    <edge id=":AD1_6" function="internal">
        <lane id=":AD1_6_0" index="0" speed="6.51" length="9.03" shape="292.80,98.40,1.98 295.25,98.05,2.02 297.00,97.00,2.06 298.05,95.25,2.10 298.40,92.80,2.14"/>
    </edge>
    <edge id=":AD1_7" function="internal">
        <lane id=":AD1_7_0" index="0" speed="100.00" length="14.40" shape="292.80,98.40,1.98 307.20,98.40,2.14"/>
    </edge>
    <edge id=":AD1_8" function="internal">
        <lane id=":AD1_8_0" index="0" speed="3.65" length="2.34" shape="292.80,98.40,1.98 294.00,99.20,1.98 294.40,100.00,1.98"/>
    </edge>
    <edge id=":AD1_11" function="internal">
        <lane id=":AD1_11_0" index="0" speed="3.65" length="2.34" shape="294.40,100.00,1.98 294.00,100.80,1.98 292.80,101.60,1.98"/>
    </edge>
    <edge id=":AE0_0" function="internal">
        <lane id=":AE0_0_0" index="0" speed="6.51" length="9.03" shape="398.40,7.20,4.86 398.05,4.75,4.81 397.00,3.00,4.77 395.25,1.95,4.73 392.80,1.60,4.69"/>
    </edge>
    <edge id=":AE0_1" function="internal">
        <lane id=":AE0_1_0" index="0" speed="8.00" length="14.19" shape="398.40,7.20,4.86 398.95,3.35,4.81 400.60,0.60,4.77 403.35,-1.05,4.73 407.20,-1.60,4.69"/>
    </edge>
    <edge id=":AE0_2" function="internal">
        <lane id=":AE0_2_0" index="0" speed="3.65" length="4.67" shape="398.40,7.20,4.86 399.20,6.00,4.86 400.00,5.60,4.86 400.80,6.00,4.86 401.60,7.20,4.86"/>
    </edge>
    <edge id=":AE0_3" function="internal">
        <lane id=":AE0_3_0" index="0" speed="6.51" length="9.03" shape="407.20,1.60,4.69 404.75,1.95,4.73 403.00,3.00,4.77 401.95,4.75,4.81 401.60,7.20,4.86"/>
    </edge>
    <edge id=":AE0_4" function="internal">
        <lane id=":AE0_4_0" index="0" speed="100.00" length="14.40" shape="407.20,1.60,4.69 392.80,1.60,4.69"/>
    </edge>
    <edge id=":AE0_5" function="internal">
        <lane id=":AE0_5_0" index="0" speed="3.65" length="2.34" shape="407.20,1.60,4.69 406.00,0.80,4.69 405.60,0.00,4.69"/>
    </edge>
    <edge id=":AE0_9" function="internal">
        <lane id=":AE0_9_0" index="0" speed="3.65" length="2.34" shape="405.60,0.00,4.69 406.00,-0.80,4.69 407.20,-1.60,4.69"/>
    </edge>
    <edge id=":AE0_6" function="internal">
        <lane id=":AE0_6_0" index="0" speed="100.00" length="14.40" shape="392.80,-1.60,4.69 407.20,-1.60,4.69"/>
    </edge>
    <edge id=":AE0_7" function="internal">
        <lane id=":AE0_7_0" index="0" speed="8.00" length="5.93" shape="392.80,-1.60,4.69 396.65,-1.05,4.73 398.40,-0.00,4.76"/>
    </edge>
    <edge id=":AE0_8" function="internal">
        <lane id=":AE0_8_0" index="0" speed="3.65" length="2.34" shape="392.80,-1.60,4.69 394.00,-0.80,4.69 394.40,0.00,4.69"/>
    </edge>
    <edge id=":AE0_10" function="internal">
        <lane id=":AE0_10_0" index="0" speed="8.00" length="8.26" shape="398.40,-0.00,4.76 399.40,0.60,4.77 401.05,3.35,4.81 401.60,7.20,4.86"/>
    </edge>
    <edge id=":AE0_11" function="internal">
        <lane id=":AE0_11_0" index="0" speed="3.65" length="2.34" shape="394.40,0.00,4.69 394.00,0.80,4.69 392.80,1.60,4.69"/>
    </edge>
    <edge id=":AE1_0" function="internal">
        <lane id=":AE1_0_0" index="0" speed="100.00" length="14.40" shape="407.20,101.60,7.11 392.80,101.60,7.11"/>
    </edge>
    <edge id=":AE1_1" function="internal">
        <lane id=":AE1_1_0" index="0" speed="8.00" length="5.93" shape="407.20,101.60,7.11 403.35,101.05,7.06 401.60,100.00,7.04"/>
    </edge>
    <edge id=":AE1_2" function="internal">
        <lane id=":AE1_2_0" index="0" speed="3.65" length="2.34" shape="407.20,101.60,7.11 406.00,100.80,7.11 405.60,100.00,7.11"/>
    </edge>
    <edge id=":AE1_9" function="internal">
        <lane id=":AE1_9_0" index="0" speed="8.00" length="8.26" shape="401.60,100.00,7.04 400.60,99.40,7.02 398.95,96.65,6.98 398.40,92.80,6.94"/>
    </edge>
    <edge id=":AE1_10" function="internal">
        <lane id=":AE1_10_0" index="0" speed="3.65" length="2.34" shape="405.60,100.00,7.11 406.00,99.20,7.11 407.20,98.40,7.11"/>
    </edge>
    <edge id=":AE1_3" function="internal">
        <lane id=":AE1_3_0" index="0" speed="6.51" length="9.03" shape="401.60,92.80,6.94 401.95,95.25,6.98 403.00,97.00,7.02 404.75,98.05,7.06 407.20,98.40,7.11"/>
    </edge>
    <edge id=":AE1_4" function="internal">
        <lane id=":AE1_4_0" index="0" speed="8.00" length="14.19" shape="401.60,92.80,6.94 401.05,96.65,6.98 399.40,99.40,7.02 396.65,101.05,7.06 392.80,101.60,7.11"/>
    </edge>
    <edge id=":AE1_5" function="internal">
        <lane id=":AE1_5_0" index="0" speed="3.65" length="4.67" shape="401.60,92.80,6.94 400.80,94.00,6.94 400.00,94.40,6.94 399.20,94.00,6.94 398.40,92.80,6.94"/>
    </edge>
    <edge id=":AE1_6" function="internal">
        <lane id=":AE1_6_0" index="0" speed="6.51" length="9.03" shape="392.80,98.40,7.11 395.25,98.05,7.06 397.00,97.00,7.02 398.05,95.25,6.98 398.40,92.80,6.94"/>
    </edge>
    <edge id=":AE1_7" function="internal">
        <lane id=":AE1_7_0" index="0" speed="100.00" length="14.40" shape="392.80,98.40,7.11 407.20,98.40,7.11"/>
    </edge>
    <edge id=":AE1_8" function="internal">
        <lane id=":AE1_8_0" index="0" speed="3.65" length="2.34" shape="392.80,98.40,7.11 394.00,99.20,7.11 394.40,100.00,7.11"/>
    </edge>
    <edge id=":AE1_11" function="internal">
        <lane id=":AE1_11_0" index="0" speed="3.65" length="2.34" shape="394.40,100.00,7.11 394.00,100.80,7.11 392.80,101.60,7.11"/>
    </edge>
    <edge id=":AF0_0" function="internal">
        <lane id=":AF0_0_0" index="0" speed="6.51" length="9.03" shape="498.40,7.20,-19.66 498.05,4.75,-19.66 497.00,3.00,-19.66 495.25,1.95,-19.66 492.80,1.60,-19.66"/>
    </edge>
    <edge id=":AF0_1" function="internal">
        <lane id=":AF0_1_0" index="0" speed="8.00" length="14.19" shape="498.40,7.20,-19.66 498.95,3.35,-19.67 500.60,0.60,-19.68 503.35,-1.05,-19.70 507.20,-1.60,-19.71"/>
    </edge>
    <edge id=":AF0_2" function="internal">
        <lane id=":AF0_2_0" index="0" speed="3.65" length="4.67" shape="498.40,7.20,-19.66 499.20,6.00,-19.66 500.00,5.60,-19.66 500.80,6.00,-19.66 501.60,7.20,-19.66"/>
    </edge>
    <edge id=":AF0_3" function="internal">
        <lane id=":AF0_3_0" index="0" speed="6.51" length="9.03" shape="507.20,1.60,-19.71 504.75,1.95,-19.70 503.00,3.00,-19.68 501.95,4.75,-19.67 501.60,7.20,-19.66"/>
    </edge>
    <edge id=":AF0_4" function="internal">
        <lane id=":AF0_4_0" index="0" speed="100.00" length="14.40" shape="507.20,1.60,-19.71 492.80,1.60,-19.66"/>
    </edge>
    <edge id=":AF0_5" function="internal">
        <lane id=":AF0_5_0" index="0" speed="3.65" length="2.34" shape="507.20,1.60,-19.71 506.00,0.80,-19.71 505.60,0.00,-19.71"/>
    </edge>
    <edge id=":AF0_9" function="internal">
        <lane id=":AF0_9_0" index="0" speed="3.65" length="2.34" shape="505.60,0.00,-19.71 506.00,-0.80,-19.71 507.20,-1.60,-19.71"/>
    </edge>
    <edge id=":AF0_6" function="internal">
        <lane id=":AF0_6_0" index="0" speed="100.00" length="14.40" shape="492.80,-1.60,-19.66 507.20,-1.60,-19.71"/>
    </edge>
    <edge id=":AF0_7" function="internal">
        <lane id=":AF0_7_0" index="0" speed="8.00" length="5.93" shape="492.80,-1.60,-19.66 496.65,-1.05,-19.66 498.40,-0.00,-19.66"/>
    </edge>
    <edge id=":AF0_8" function="internal">
        <lane id=":AF0_8_0" index="0" speed="3.65" length="2.34" shape="492.80,-1.60,-19.66 494.00,-0.80,-19.66 494.40,0.00,-19.66"/>
    </edge>
    <edge id=":AF0_10" function="internal">
        <lane id=":AF0_10_0" index="0" speed="8.00" length="8.26" shape="498.40,-0.00,-19.66 499.40,0.60,-19.66 501.05,3.35,-19.66 501.60,7.20,-19.66"/>
    </edge>
    <edge id=":AF0_11" function="internal">
        <lane id=":AF0_11_0" index="0" speed="3.65" length="2.34" shape="494.40,0.00,-19.66 494.00,0.80,-19.66 492.80,1.60,-19.66"/>
    </edge>
    <edge id=":AF1_0" function="internal">
        <lane id=":AF1_0_0" index="0" speed="100.00" length="14.40" shape="507.20,101.60,-0.30 492.80,101.60,-0.24"/>
    </edge>
    <edge id=":AF1_1" function="internal">
        <lane id=":AF1_1_0" index="0" speed="8.00" length="5.93" shape="507.20,101.60,-0.30 503.35,101.05,-0.29 501.60,100.00,-0.28"/>
    </edge>
    <edge id=":AF1_2" function="internal">
        <lane id=":AF1_2_0" index="0" speed="3.65" length="2.34" shape="507.20,101.60,-0.30 506.00,100.80,-0.30 505.60,100.00,-0.30"/>
    </edge>
    <edge id=":AF1_9" function="internal">
        <lane id=":AF1_9_0" index="0" speed="8.00" length="8.26" shape="501.60,100.00,-0.28 500.60,99.40,-0.27 498.95,96.65,-0.26 498.40,92.80,-0.24"/>
    </edge>
    <edge id=":AF1_10" function="internal">
        <lane id=":AF1_10_0" index="0" speed="3.65" length="2.34" shape="505.60,100.00,-0.30 506.00,99.20,-0.30 507.20,98.40,-0.30"/>
    </edge>
    <edge id=":AF1_3" function="internal">
        <lane id=":AF1_3_0" index="0" speed="6.51" length="9.03" shape="501.60,92.80,-0.24 501.95,95.25,-0.26 503.00,97.00,-0.27 504.75,98.05,-0.29 507.20,98.40,-0.30"/>
    </edge>
    <edge id=":AF1_4" function="internal">
        <lane id=":AF1_4_0" index="0" speed="8.00" length="14.19" shape="501.60,92.80,-0.24 501.05,96.65,-0.24 499.40,99.40,-0.24 496.65,101.05,-0.24 492.80,101.60,-0.24"/>
    </edge>
    <edge id=":AF1_5" function="internal">
        <lane id=":AF1_5_0" index="0" speed="3.65" length="4.67" shape="501.60,92.80,-0.24 500.80,94.00,-0.24 500.00,94.40,-0.24 499.20,94.00,-0.24 498.40,92.80,-0.24"/>
    </edge>
    <edge id=":AF1_6" function="internal">
        <lane id=":AF1_6_0" index="0" speed="6.51" length="9.03" shape="492.80,98.40,-0.24 495.25,98.05,-0.24 497.00,97.00,-0.24 498.05,95.25,-0.24 498.40,92.80,-0.24"/>
    </edge>
    <edge id=":AF1_7" function="internal">
        <lane id=":AF1_7_0" index="0" speed="100.00" length="14.40" shape="492.80,98.40,-0.24 507.20,98.40,-0.30"/>
    </edge>
    <edge id=":AF1_8" function="internal">
        <lane id=":AF1_8_0" index="0" speed="3.65" length="2.34" shape="492.80,98.40,-0.24 494.00,99.20,-0.24 494.40,100.00,-0.24"/>
    </edge>
    <edge id=":AF1_11" function="internal">
        <lane id=":AF1_11_0" index="0" speed="3.65" length="2.34" shape="494.40,100.00,-0.24 494.00,100.80,-0.24 492.80,101.60,-0.24"/>
    </edge>
    <edge id=":AG0_0" function="internal">
        <lane id=":AG0_0_0" index="0" speed="6.51" length="9.03" shape="598.40,7.20,-20.44 598.05,4.75,-20.42 597.00,3.00,-20.41 595.25,1.95,-20.40 592.80,1.60,-20.38"/>
    </edge>
    <edge id=":AG0_1" function="internal">
        <lane id=":AG0_1_0" index="0" speed="8.00" length="14.19" shape="598.40,7.20,-20.44 598.95,3.35,-20.44 600.60,0.60,-20.44 603.35,-1.05,-20.44 607.20,-1.60,-20.44"/>
    </edge>
    <edge id=":AG0_2" function="internal">
        <lane id=":AG0_2_0" index="0" speed="3.65" length="4.67" shape="598.40,7.20,-20.44 599.20,6.00,-20.44 600.00,5.60,-20.44 600.80,6.00,-20.44 601.60,7.20,-20.44"/>
    </edge>
    <edge id=":AG0_3" function="internal">
        <lane id=":AG0_3_0" index="0" speed="6.51" length="9.03" shape="607.20,1.60,-20.44 604.75,1.95,-20.44 603.00,3.00,-20.44 601.95,4.75,-20.44 601.60,7.20,-20.44"/>
    </edge>
    <edge id=":AG0_4" function="internal">
        <lane id=":AG0_4_0" index="0" speed="100.00" length="14.40" shape="607.20,1.60,-20.44 592.80,1.60,-20.38"/>
    </edge>
    <edge id=":AG0_5" function="internal">
        <lane id=":AG0_5_0" index="0" speed="3.65" length="2.34" shape="607.20,1.60,-20.44 606.00,0.80,-20.44 605.60,0.00,-20.44"/>
    </edge>
    <edge id=":AG0_9" function="internal">
        <lane id=":AG0_9_0" index="0" speed="3.65" length="2.34" shape="605.60,0.00,-20.44 606.00,-0.80,-20.44 607.20,-1.60,-20.44"/>
    </edge>
    <edge id=":AG0_6" function="internal">
        <lane id=":AG0_6_0" index="0" speed="100.00" length="14.40" shape="592.80,-1.60,-20.38 607.20,-1.60,-20.44"/>
    </edge>
    <edge id=":AG0_7" function="internal">
        <lane id=":AG0_7_0" index="0" speed="8.00" length="5.93" shape="592.80,-1.60,-20.38 596.65,-1.05,-20.40 598.40,-0.00,-20.41"/>
    </edge>
    <edge id=":AG0_8" function="internal">
        <lane id=":AG0_8_0" index="0" speed="3.65" length="2.34" shape="592.80,-1.60,-20.38 594.00,-0.80,-20.38 594.40,0.00,-20.38"/>
    </edge>
    <edge id=":AG0_10" function="internal">
        <lane id=":AG0_10_0" index="0" speed="8.00" length="8.26" shape="598.40,-0.00,-20.41 599.40,0.60,-20.41 601.05,3.35,-20.42 601.60,7.20,-20.44"/>
    </edge>
    <edge id=":AG0_11" function="internal">
        <lane id=":AG0_11_0" index="0" speed="3.65" length="2.34" shape="594.40,0.00,-20.38 594.00,0.80,-20.38 592.80,1.60,-20.38"/>
    </edge>
    <edge id=":AG1_0" function="internal">
        <lane id=":AG1_0_0" index="0" speed="100.00" length="14.40" shape="607.20,101.60,-1.00 592.80,101.60,-1.04"/>
    </edge>
    <edge id=":AG1_1" function="internal">
        <lane id=":AG1_1_0" index="0" speed="8.00" length="5.93" shape="607.20,101.60,-1.00 603.35,101.05,-1.03 601.60,100.00,-1.04"/>
    </edge>
    <edge id=":AG1_2" function="internal">
        <lane id=":AG1_2_0" index="0" speed="3.65" length="2.34" shape="607.20,101.60,-1.00 606.00,100.80,-1.00 605.60,100.00,-1.00"/>
    </edge>
    <edge id=":AG1_9" function="internal">
        <lane id=":AG1_9_0" index="0" speed="8.00" length="8.26" shape="601.60,100.00,-1.04 600.60,99.40,-1.05 598.95,96.65,-1.07 598.40,92.80,-1.10"/>
    </edge>
    <edge id=":AG1_10" function="internal">
        <lane id=":AG1_10_0" index="0" speed="3.65" length="2.34" shape="605.60,100.00,-1.00 606.00,99.20,-1.00 607.20,98.40,-1.00"/>
    </edge>
    <edge id=":AG1_3" function="internal">
        <lane id=":AG1_3_0" index="0" speed="6.51" length="9.03" shape="601.60,92.80,-1.10 601.95,95.25,-1.07 603.00,97.00,-1.05 604.75,98.05,-1.03 607.20,98.40,-1.00"/>
    </edge>
    <edge id=":AG1_4" function="internal">
        <lane id=":AG1_4_0" index="0" speed="8.00" length="14.19" shape="601.60,92.80,-1.10 601.05,96.65,-1.08 599.40,99.40,-1.07 596.65,101.05,-1.06 592.80,101.60,-1.04"/>
    </edge>
    <edge id=":AG1_5" function="internal">
        <lane id=":AG1_5_0" index="0" speed="3.65" length="4.67" shape="601.60,92.80,-1.10 600.80,94.00,-1.10 600.00,94.40,-1.10 599.20,94.00,-1.10 598.40,92.80,-1.10"/>
    </edge>
    <edge id=":AG1_6" function="internal">
        <lane id=":AG1_6_0" index="0" speed="6.51" length="9.03" shape="592.80,98.40,-1.04 595.25,98.05,-1.06 597.00,97.00,-1.07 598.05,95.25,-1.08 598.40,92.80,-1.10"/>
    </edge>
    <edge id=":AG1_7" function="internal">
        <lane id=":AG1_7_0" index="0" speed="100.00" length="14.40" shape="592.80,98.40,-1.04 607.20,98.40,-1.00"/>
    </edge>
    <edge id=":AG1_8" function="internal">