<?xml version="1.0" encoding="UTF-8"?>

<!-- generated on 08/01/20 19:34:13 by Eclipse SUMO netgenerate Version 1.5.0
<configuration xmlns:xsi="http://www.w3.org/2001/XMLSchema-instance" xsi:noNamespaceSchemaLocation="http://sumo.dlr.de/xsd/netgenerateConfiguration.xsd">

    <grid_network>
        <grid value="true"/>
        <grid.x-number value="41"/>
        <grid.y-number value="2"/>
    </grid_network>

    <output>
        <output-file value="3.net.xml"/>
    </output>

    <processing>
        <perturb-z value="25"/>
    </processing>

    <building_defaults>
        <default.speed value="100"/>
    </building_defaults>

    <random_number>
        <seed value="209369489"/>
    </random_number>

</configuration>
-->

<net version="1.3" junctionCornerDetail="5" limitTurnSpeed="5.50" xmlns:xsi="http://www.w3.org/2001/XMLSchema-instance" xsi:noNamespaceSchemaLocation="http://sumo.dlr.de/xsd/net_file.xsd">

    <location netOffset="0.00,0.00" convBoundary="0.00,0.00,4000.00,100.00" origBoundary="0.00,0.00,4000.00,100.00" projParameter="!"/>

    <edge id=":AA0_0" function="internal">
        <lane id=":AA0_0_0" index="0" speed="6.08" length="7.83" shape="-1.60,3.20,-11.79 -1.30,1.10,-12.11 -0.40,-0.40,-12.37 1.10,-1.30,-12.63 3.20,-1.60,-12.94"/>
    </edge>
    <edge id=":AA0_1" function="internal">
        <lane id=":AA0_1_0" index="0" speed="3.90" length="2.84" shape="3.20,1.60,-12.97 2.50,1.70,-12.65 2.00,2.00,-12.38 1.70,2.50,-12.12 1.60,3.20,-11.79"/>
    </edge>
    <edge id=":AA1_0" function="internal">
        <lane id=":AA1_0_0" index="0" speed="6.08" length="7.75" shape="3.20,101.60,10.75 1.10,101.30,10.84 -0.40,100.40,10.92 -1.30,98.90,11.00 -1.60,96.80,11.10"/>
    </edge>
    <edge id=":AA1_1" function="internal">
        <lane id=":AA1_1_0" index="0" speed="3.90" length="2.59" shape="1.60,96.80,11.10 1.70,97.50,11.03 2.00,98.00,10.97 2.50,98.30,10.90 3.20,98.40,10.83"/>
    </edge>
    <edge id=":AB0_0" function="internal">
        <lane id=":AB0_0_0" index="0" speed="6.51" length="9.03" shape="98.40,7.20,-24.02 98.05,4.75,-24.02 97.00,3.00,-24.02 95.25,1.95,-24.02 92.80,1.60,-24.02"/>
    </edge>
    <edge id=":AB0_1" function="internal">
        <lane id=":AB0_1_0" index="0" speed="8.00" length="14.19" shape="98.40,7.20,-24.02 98.95,3.35,-24.02 100.60,0.60,-24.02 103.35,-1.05,-24.02 107.20,-1.60,-24.02"/>
    </edge>
    <edge id=":AB0_2" function="internal">
        <lane id=":AB0_2_0" index="0" speed="3.65" length="4.67" shape="98.40,7.20,-24.02 99.20,6.00,-24.02 100.00,5.60,-24.02 100.80,6.00,-24.02 101.60,7.20,-24.02"/>
    </edge>
    <edge id=":AB0_3" function="internal">
        <lane id=":AB0_3_0" index="0" speed="6.51" length="9.03" shape="107.20,1.60,-24.02 104.75,1.95,-24.02 103.00,3.00,-24.02 101.95,4.75,-24.02 101.60,7.20,-24.02"/>
    </edge>
    <edge id=":AB0_4" function="internal">
        <lane id=":AB0_4_0" index="0" speed="100.00" length="14.40" shape="107.20,1.60,-24.02 92.80,1.60,-24.02"/>
    </edge>
    <edge id=":AB0_5" function="internal">
        <lane id=":AB0_5_0" index="0" speed="3.65" length="2.34" shape="107.20,1.60,-24.02 106.00,0.80,-24.02 105.60,0.00,-24.02"/>
    </edge>
    <edge id=":AB0_9" function="internal">
        <lane id=":AB0_9_0" index="0" speed="3.65" length="2.34" shape="105.60,0.00,-24.02 106.00,-0.80,-24.02 107.20,-1.60,-24.02"/>
    </edge>
    <edge id=":AB0_6" function="internal">
        <lane id=":AB0_6_0" index="0" speed="100.00" length="14.40" shape="92.80,-1.60,-24.02 107.20,-1.60,-24.02"/>
    </edge>
    <edge id=":AB0_7" function="internal">
        <lane id=":AB0_7_0" index="0" speed="8.00" length="5.93" shape="92.80,-1.60,-24.02 96.65,-1.05,-24.02 98.40,-0.00,-24.02"/>
    </edge>
    <edge id=":AB0_8" function="internal">
        <lane id=":AB0_8_0" index="0" speed="3.65" length="2.34" shape="92.80,-1.60,-24.02 94.00,-0.80,-24.02 94.40,0.00,-24.02"/>
    </edge>
    <edge id=":AB0_10" function="internal">
        <lane id=":AB0_10_0" index="0" speed="8.00" length="8.26" shape="98.40,-0.00,-24.02 99.40,0.60,-24.02 101.05,3.35,-24.02 101.60,7.20,-24.02"/>
    </edge>
    <edge id=":AB0_11" function="internal">
        <lane id=":AB0_11_0" index="0" speed="3.65" length="2.34" shape="94.40,0.00,-24.02 94.00,0.80,-24.02 92.80,1.60,-24.02"/>
    </edge>
    <edge id=":AB1_0" function="internal">
        <lane id=":AB1_0_0" index="0" speed="100.00" length="14.40" shape="107.20,101.60,-21.05 92.80,101.60,-21.05"/>
    </edge>
    <edge id=":AB1_1" function="internal">
        <lane id=":AB1_1_0" index="0" speed="8.00" length="5.93" shape="107.20,101.60,-21.05 103.35,101.05,-21.05 101.60,100.00,-21.05"/>
    </edge>
    <edge id=":AB1_2" function="internal">
        <lane id=":AB1_2_0" index="0" speed="3.65" length="2.34" shape="107.20,101.60,-21.05 106.00,100.80,-21.05 105.60,100.00,-21.05"/>
    </edge>
    <edge id=":AB1_9" function="internal">
        <lane id=":AB1_9_0" index="0" speed="8.00" length="8.26" shape="101.60,100.00,-21.05 100.60,99.40,-21.05 98.95,96.65,-21.05 98.40,92.80,-21.05"/>
    </edge>
    <edge id=":AB1_10" function="internal">
        <lane id=":AB1_10_0" index="0" speed="3.65" length="2.34" shape="105.60,100.00,-21.05 106.00,99.20,-21.05 107.20,98.40,-21.05"/>
    </edge>
    <edge id=":AB1_3" function="internal">
        <lane id=":AB1_3_0" index="0" speed="6.51" length="9.03" shape="101.60,92.80,-21.05 101.95,95.25,-21.05 103.00,97.00,-21.05 104.75,98.05,-21.05 107.20,98.40,-21.05"/>
    </edge>
    <edge id=":AB1_4" function="internal">
        <lane id=":AB1_4_0" index="0" speed="8.00" length="14.19" shape="101.60,92.80,-21.05 101.05,96.65,-21.05 99.40,99.40,-21.05 96.65,101.05,-21.05 92.80,101.60,-21.05"/>
    </edge>
    <edge id=":AB1_5" function="internal">
        <lane id=":AB1_5_0" index="0" speed="3.65" length="4.67" shape="101.60,92.80,-21.05 100.80,94.00,-21.05 100.00,94.40,-21.05 99.20,94.00,-21.05 98.40,92.80,-21.05"/>
    </edge>
    <edge id=":AB1_6" function="internal">
        <lane id=":AB1_6_0" index="0" speed="6.51" length="9.03" shape="92.80,98.40,-21.05 95.25,98.05,-21.05 97.00,97.00,-21.05 98.05,95.25,-21.05 98.40,92.80,-21.05"/>
    </edge>
    <edge id=":AB1_7" function="internal">
        <lane id=":AB1_7_0" index="0" speed="100.00" length="14.40" shape="92.80,98.40,-21.05 107.20,98.40,-21.05"/>
    </edge>
    <edge id=":AB1_8" function="internal">
        <lane id=":AB1_8_0" index="0" speed="3.65" length="2.34" shape="92.80,98.40,-21.05 94.00,99.20,-21.05 94.40,100.00,-21.05"/>
    </edge>
    <edge id=":AB1_11" function="internal">
        <lane id=":AB1_11_0" index="0" speed="3.65" length="2.34" shape="94.40,100.00,-21.05 94.00,100.80,-21.05 92.80,101.60,-21.05"/>
    </edge>
    <edge id=":AC0_0" function="internal">
        <lane id=":AC0_0_0" index="0" speed="6.51" length="9.03" shape="198.40,7.20,17.70 198.05,4.75,17.70 197.00,3.00,17.70 195.25,1.95,17.70 192.80,1.60,17.70"/>
    </edge>
    <edge id=":AC0_1" function="internal">
        <lane id=":AC0_1_0" index="0" speed="8.00" length="14.19" shape="198.40,7.20,17.70 198.95,3.35,17.70 200.60,0.60,17.70 203.35,-1.05,17.70 207.20,-1.60,17.70"/>
    </edge>
    <edge id=":AC0_2" function="internal">
        <lane id=":AC0_2_0" index="0" speed="3.65" length="4.67" shape="198.40,7.20,17.70 199.20,6.00,17.70 200.00,5.60,17.70 200.80,6.00,17.70 201.60,7.20,17.70"/>
    </edge>
    <edge id=":AC0_3" function="internal">
        <lane id=":AC0_3_0" index="0" speed="6.51" length="9.03" shape="207.20,1.60,17.70 204.75,1.95,17.70 203.00,3.00,17.70 201.95,4.75,17.70 201.60,7.20,17.70"/>
    </edge>
    <edge id=":AC0_4" function="internal">
        <lane id=":AC0_4_0" index="0" speed="100.00" length="14.40" shape="207.20,1.60,17.70 192.80,1.60,17.70"/>
    </edge>
    <edge id=":AC0_5" function="internal">
        <lane id=":AC0_5_0" index="0" speed="3.65" length="2.34" shape="207.20,1.60,17.70 206.00,0.80,17.70 205.60,0.00,17.70"/>
    </edge>
    <edge id=":AC0_9" function="internal">
        <lane id=":AC0_9_0" index="0" speed="3.65" length="2.34" shape="205.60,0.00,17.70 206.00,-0.80,17.70 207.20,-1.60,17.70"/>
    </edge>
    <edge id=":AC0_6" function="internal">
        <lane id=":AC0_6_0" index="0" speed="100.00" length="14.40" shape="192.80,-1.60,17.70 207.20,-1.60,17.70"/>
    </edge>
    <edge id=":AC0_7" function="internal">
        <lane id=":AC0_7_0" index="0" speed="8.00" length="5.93" shape="192.80,-1.60,17.70 196.65,-1.05,17.70 198.40,0.00,17.70"/>
    </edge>
    <edge id=":AC0_8" function="internal">
        <lane id=":AC0_8_0" index="0" speed="3.65" length="2.34" shape="192.80,-1.60,17.70 194.00,-0.80,17.70 194.40,0.00,17.70"/>
    </edge>
    <edge id=":AC0_10" function="internal">
        <lane id=":AC0_10_0" index="0" speed="8.00" length="8.26" shape="198.40,0.00,17.70 199.40,0.60,17.70 201.05,3.35,17.70 201.60,7.20,17.70"/>
    </edge>
    <edge id=":AC0_11" function="internal">
        <lane id=":AC0_11_0" index="0" speed="3.65" length="2.34" shape="194.40,0.00,17.70 194.00,0.80,17.70 192.80,1.60,17.70"/>
    </edge>
    <edge id=":AC1_0" function="internal">
        <lane id=":AC1_0_0" index="0" speed="100.00" length="14.40" shape="207.20,101.60,-0.36 192.80,101.60,-0.36"/>
    </edge>
    <edge id=":AC1_1" function="internal">
        <lane id=":AC1_1_0" index="0" speed="8.00" length="5.93" shape="207.20,101.60,-0.36 203.35,101.05,-0.36 201.60,100.00,-0.36"/>
    </edge>
    <edge id=":AC1_2" function="internal">
        <lane id=":AC1_2_0" index="0" speed="3.65" length="2.34" shape="207.20,101.60,-0.36 206.00,100.80,-0.36 205.60,100.00,-0.36"/>
    </edge>
    <edge id=":AC1_9" function="internal">
        <lane id=":AC1_9_0" index="0" speed="8.00" length="8.26" shape="201.60,100.00,-0.36 200.60,99.40,-0.36 198.95,96.65,-0.36 198.40,92.80,-0.36"/>
    </edge>
    <edge id=":AC1_10" function="internal">
        <lane id=":AC1_10_0" index="0" speed="3.65" length="2.34" shape="205.60,100.00,-0.36 206.00,99.20,-0.36 207.20,98.40,-0.36"/>
    </edge>
    <edge id=":AC1_3" function="internal">
        <lane id=":AC1_3_0" index="0" speed="6.51" length="9.03" shape="201.60,92.80,-0.36 201.95,95.25,-0.36 203.00,97.00,-0.36 204.75,98.05,-0.36 207.20,98.40,-0.36"/>
    </edge>
    <edge id=":AC1_4" function="internal">
        <lane id=":AC1_4_0" index="0" speed="8.00" length="14.19" shape="201.60,92.80,-0.36 201.05,96.65,-0.36 199.40,99.40,-0.36 196.65,101.05,-0.36 192.80,101.60,-0.36"/>
    </edge>
    <edge id=":AC1_5" function="internal">
        <lane id=":AC1_5_0" index="0" speed="3.65" length="4.67" shape="201.60,92.80,-0.36 200.80,94.00,-0.36 200.00,94.40,-0.36 199.20,94.00,-0.36 198.40,92.80,-0.36"/>
    </edge>
    <edge id=":AC1_6" function="internal">
        <lane id=":AC1_6_0" index="0" speed="6.51" length="9.03" shape="192.80,98.40,-0.36 195.25,98.05,-0.36 197.00,97.00,-0.36 198.05,95.25,-0.36 198.40,92.80,-0.36"/>
    </edge>
    <edge id=":AC1_7" function="internal">
        <lane id=":AC1_7_0" index="0" speed="100.00" length="14.40" shape="192.80,98.40,-0.36 207.20,98.40,-0.36"/>
    </edge>
    <edge id=":AC1_8" function="internal">
        <lane id=":AC1_8_0" index="0" speed="3.65" length="2.34" shape="192.80,98.40,-0.36 194.00,99.20,-0.36 194.40,100.00,-0.36"/>
    </edge>
    <edge id=":AC1_11" function="internal">
        <lane id=":AC1_11_0" index="0" speed="3.65" length="2.34" shape="194.40,100.00,-0.36 194.00,100.80,-0.36 192.80,101.60,-0.36"/>
    </edge>
    <edge id=":AD0_0" function="internal">
        <lane id=":AD0_0_0" index="0" speed="6.51" length="9.03" shape="298.40,7.20,-28.77 298.05,4.75,-28.77 297.00,3.00,-28.77 295.25,1.95,-28.77 292.80,1.60,-28.77"/>
    </edge>
    <edge id=":AD0_1" function="internal">
        <lane id=":AD0_1_0" index="0" speed="8.00" length="14.19" shape="298.40,7.20,-28.77 298.95,3.35,-28.77 300.60,0.60,-28.77 303.35,-1.05,-28.77 307.20,-1.60,-28.77"/>
    </edge>
    <edge id=":AD0_2" function="internal">
        <lane id=":AD0_2_0" index="0" speed="3.65" length="4.67" shape="298.40,7.20,-28.77 299.20,6.00,-28.77 300.00,5.60,-28.77 300.80,6.00,-28.77 301.60,7.20,-28.77"/>
    </edge>
    <edge id=":AD0_3" function="internal">
        <lane id=":AD0_3_0" index="0" speed="6.51" length="9.03" shape="307.20,1.60,-28.77 304.75,1.95,-28.77 303.00,3.00,-28.77 301.95,4.75,-28.77 301.60,7.20,-28.77"/>
    </edge>
    <edge id=":AD0_4" function="internal">
        <lane id=":AD0_4_0" index="0" speed="100.00" length="14.40" shape="307.20,1.60,-28.77 292.80,1.60,-28.77"/>
    </edge>
    <edge id=":AD0_5" function="internal">
        <lane id=":AD0_5_0" index="0" speed="3.65" length="2.34" shape="307.20,1.60,-28.77 306.00,0.80,-28.77 305.60,0.00,-28.77"/>
    </edge>
    <edge id=":AD0_9" function="internal">
        <lane id=":AD0_9_0" index="0" speed="3.65" length="2.34" shape="305.60,0.00,-28.77 306.00,-0.80,-28.77 307.20,-1.60,-28.77"/>
    </edge>
    <edge id=":AD0_6" function="internal">
        <lane id=":AD0_6_0" index="0" speed="100.00" length="14.40" shape="292.80,-1.60,-28.77 307.20,-1.60,-28.77"/>
    </edge>
    <edge id=":AD0_7" function="internal">
        <lane id=":AD0_7_0" index="0" speed="8.00" length="5.93" shape="292.80,-1.60,-28.77 296.65,-1.05,-28.77 298.40,-0.00,-28.77"/>
    </edge>
    <edge id=":AD0_8" function="internal">
        <lane id=":AD0_8_0" index="0" speed="3.65" length="2.34" shape="292.80,-1.60,-28.77 294.00,-0.80,-28.77 294.40,0.00,-28.77"/>
    </edge>
    <edge id=":AD0_10" function="internal">
        <lane id=":AD0_10_0" index="0" speed="8.00" length="8.26" shape="298.40,-0.00,-28.77 299.40,0.60,-28.77 301.05,3.35,-28.77 301.60,7.20,-28.77"/>
    </edge>
    <edge id=":AD0_11" function="internal">
        <lane id=":AD0_11_0" index="0" speed="3.65" length="2.34" shape="294.40,0.00,-28.77 294.00,0.80,-28.77 292.80,1.60,-28.77"/>
    </edge>
    <edge id=":AD1_0" function="internal">
        <lane id=":AD1_0_0" index="0" speed="100.00" length="14.40" shape="307.20,101.60,7.65 292.80,101.60,7.65"/>
    </edge>
    <edge id=":AD1_1" function="internal">
        <lane id=":AD1_1_0" index="0" speed="8.00" length="5.93" shape="307.20,101.60,7.65 303.35,101.05,7.65 301.60,100.00,7.65"/>
    </edge>
    <edge id=":AD1_2" function="internal">
        <lane id=":AD1_2_0" index="0" speed="3.65" length="2.34" shape="307.20,101.60,7.65 306.00,100.80,7.65 305.60,100.00,7.65"/>
    </edge>
    <edge id=":AD1_9" function="internal">
        <lane id=":AD1_9_0" index="0" speed="8.00" length="8.26" shape="301.60,100.00,7.65 300.60,99.40,7.65 298.95,96.65,7.65 298.40,92.80,7.65"/>
    </edge>
    <edge id=":AD1_10" function="internal">
        <lane id=":AD1_10_0" index="0" speed="3.65" length="2.34" shape="305.60,100.00,7.65 306.00,99.20,7.65 307.20,98.40,7.65"/>
    </edge>
    <edge id=":AD1_3" function="internal">
        <lane id=":AD1_3_0" index="0" speed="6.51" length="9.03" shape="301.60,92.80,7.65 301.95,95.25,7.65 303.00,97.00,7.65 304.75,98.05,7.65 307.20,98.40,7.65"/>
    </edge>
    <edge id=":AD1_4" function="internal">
        <lane id=":AD1_4_0" index="0" speed="8.00" length="14.19" shape="301.60,92.80,7.65 301.05,96.65,7.65 299.40,99.40,7.65 296.65,101.05,7.65 292.80,101.60,7.65"/>
    </edge>
    <edge id=":AD1_5" function="internal">
        <lane id=":AD1_5_0" index="0" speed="3.65" length="4.67" shape="301.60,92.80,7.65 300.80,94.00,7.65 300.00,94.40,7.65 299.20,94.00,7.65 298.40,92.80,7.65"/>
    </edge>
    <edge id=":AD1_6" function="internal">
        <lane id=":AD1_6_0" index="0" speed="6.51" length="9.03" shape="292.80,98.40,7.65 295.25,98.05,7.65 297.00,97.00,7.65 298.05,95.25,7.65 298.40,92.80,7.65"/>
    </edge>
    <edge id=":AD1_7" function="internal">
        <lane id=":AD1_7_0" index="0" speed="100.00" length="14.40" shape="292.80,98.40,7.65 307.20,98.40,7.65"/>
    </edge>
    <edge id=":AD1_8" function="internal">
        <lane id=":AD1_8_0" index="0" speed="3.65" length="2.34" shape="292.80,98.40,7.65 294.00,99.20,7.65 294.40,100.00,7.65"/>
    </edge>
    <edge id=":AD1_11" function="internal">
        <lane id=":AD1_11_0" index="0" speed="3.65" length="2.34" shape="294.40,100.00,7.65 294.00,100.80,7.65 292.80,101.60,7.65"/>
    </edge>
    <edge id=":AE0_0" function="internal">
        <lane id=":AE0_0_0" index="0" speed="6.51" length="9.03" shape="398.40,7.20,16.73 398.05,4.75,16.73 397.00,3.00,16.73 395.25,1.95,16.73 392.80,1.60,16.73"/>
    </edge>
    <edge id=":AE0_1" function="internal">
        <lane id=":AE0_1_0" index="0" speed="8.00" length="14.19" shape="398.40,7.20,16.73 398.95,3.35,16.73 400.60,0.60,16.73 403.35,-1.05,16.73 407.20,-1.60,16.73"/>
    </edge>
    <edge id=":AE0_2" function="internal">
        <lane id=":AE0_2_0" index="0" speed="3.65" length="4.67" shape="398.40,7.20,16.73 399.20,6.00,16.73 400.00,5.60,16.73 400.80,6.00,16.73 401.60,7.20,16.73"/>
    </edge>
    <edge id=":AE0_3" function="internal">
        <lane id=":AE0_3_0" index="0" speed="6.51" length="9.03" shape="407.20,1.60,16.73 404.75,1.95,16.73 403.00,3.00,16.73 401.95,4.75,16.73 401.60,7.20,16.73"/>
    </edge>
    <edge id=":AE0_4" function="internal">
        <lane id=":AE0_4_0" index="0" speed="100.00" length="14.40" shape="407.20,1.60,16.73 392.80,1.60,16.73"/>
    </edge>
    <edge id=":AE0_5" function="internal">
        <lane id=":AE0_5_0" index="0" speed="3.65" length="2.34" shape="407.20,1.60,16.73 406.00,0.80,16.73 405.60,0.00,16.73"/>
    </edge>
    <edge id=":AE0_9" function="internal">
        <lane id=":AE0_9_0" index="0" speed="3.65" length="2.34" shape="405.60,0.00,16.73 406.00,-0.80,16.73 407.20,-1.60,16.73"/>
    </edge>
    <edge id=":AE0_6" function="internal">
        <lane id=":AE0_6_0" index="0" speed="100.00" length="14.40" shape="392.80,-1.60,16.73 407.20,-1.60,16.73"/>
    </edge>
    <edge id=":AE0_7" function="internal">
        <lane id=":AE0_7_0" index="0" speed="8.00" length="5.93" shape="392.80,-1.60,16.73 396.65,-1.05,16.73 398.40,-0.00,16.73"/>
    </edge>
    <edge id=":AE0_8" function="internal">
        <lane id=":AE0_8_0" index="0" speed="3.65" length="2.34" shape="392.80,-1.60,16.73 394.00,-0.80,16.73 394.40,0.00,16.73"/>
    </edge>
    <edge id=":AE0_10" function="internal">
        <lane id=":AE0_10_0" index="0" speed="8.00" length="8.26" shape="398.40,-0.00,16.73 399.40,0.60,16.73 401.05,3.35,16.73 401.60,7.20,16.73"/>
    </edge>
    <edge id=":AE0_11" function="internal">
        <lane id=":AE0_11_0" index="0" speed="3.65" length="2.34" shape="394.40,0.00,16.73 394.00,0.80,16.73 392.80,1.60,16.73"/>
    </edge>
    <edge id=":AE1_0" function="internal">
        <lane id=":AE1_0_0" index="0" speed="100.00" length="14.40" shape="407.20,101.60,25.40 392.80,101.60,25.40"/>
    </edge>
    <edge id=":AE1_1" function="internal">
        <lane id=":AE1_1_0" index="0" speed="8.00" length="5.93" shape="407.20,101.60,25.40 403.35,101.05,25.40 401.60,100.00,25.40"/>
    </edge>
    <edge id=":AE1_2" function="internal">
        <lane id=":AE1_2_0" index="0" speed="3.65" length="2.34" shape="407.20,101.60,25.40 406.00,100.80,25.40 405.60,100.00,25.40"/>
    </edge>
    <edge id=":AE1_9" function="internal">
        <lane id=":AE1_9_0" index="0" speed="8.00" length="8.26" shape="401.60,100.00,25.40 400.60,99.40,25.40 398.95,96.65,25.40 398.40,92.80,25.40"/>
    </edge>
    <edge id=":AE1_10" function="internal">
        <lane id=":AE1_10_0" index="0" speed="3.65" length="2.34" shape="405.60,100.00,25.40 406.00,99.20,25.40 407.20,98.40,25.40"/>
    </edge>
    <edge id=":AE1_3" function="internal">
        <lane id=":AE1_3_0" index="0" speed="6.51" length="9.03" shape="401.60,92.80,25.40 401.95,95.25,25.40 403.00,97.00,25.40 404.75,98.05,25.40 407.20,98.40,25.40"/>
    </edge>
    <edge id=":AE1_4" function="internal">
        <lane id=":AE1_4_0" index="0" speed="8.00" length="14.19" shape="401.60,92.80,25.40 401.05,96.65,25.40 399.40,99.40,25.40 396.65,101.05,25.40 392.80,101.60,25.40"/>
    </edge>
    <edge id=":AE1_5" function="internal">
        <lane id=":AE1_5_0" index="0" speed="3.65" length="4.67" shape="401.60,92.80,25.40 400.80,94.00,25.40 400.00,94.40,25.40 399.20,94.00,25.40 398.40,92.80,25.40"/>
    </edge>
    <edge id=":AE1_6" function="internal">
        <lane id=":AE1_6_0" index="0" speed="6.51" length="9.03" shape="392.80,98.40,25.40 395.25,98.05,25.40 397.00,97.00,25.40 398.05,95.25,25.40 398.40,92.80,25.40"/>
    </edge>
    <edge id=":AE1_7" function="internal">
        <lane id=":AE1_7_0" index="0" speed="100.00" length="14.40" shape="392.80,98.40,25.40 407.20,98.40,25.40"/>
    </edge>
    <edge id=":AE1_8" function="internal">
        <lane id=":AE1_8_0" index="0" speed="3.65" length="2.34" shape="392.80,98.40,25.40 394.00,99.20,25.40 394.40,100.00,25.40"/>
    </edge>
    <edge id=":AE1_11" function="internal">
        <lane id=":AE1_11_0" index="0" speed="3.65" length="2.34" shape="394.40,100.00,25.40 394.00,100.80,25.40 392.80,101.60,25.40"/>
    </edge>
    <edge id=":AF0_0" function="internal">
        <lane id=":AF0_0_0" index="0" speed="6.51" length="9.03" shape="498.40,7.20,-70.20 498.05,4.75,-70.20 497.00,3.00,-70.20 495.25,1.95,-70.20 492.80,1.60,-70.20"/>
    </edge>
    <edge id=":AF0_1" function="internal">
        <lane id=":AF0_1_0" index="0" speed="8.00" length="14.19" shape="498.40,7.20,-70.20 498.95,3.35,-70.20 500.60,0.60,-70.20 503.35,-1.05,-70.20 507.20,-1.60,-70.20"/>
    </edge>
    <edge id=":AF0_2" function="internal">
        <lane id=":AF0_2_0" index="0" speed="3.65" length="4.67" shape="498.40,7.20,-70.20 499.20,6.00,-70.20 500.00,5.60,-70.20 500.80,6.00,-70.20 501.60,7.20,-70.20"/>
    </edge>
    <edge id=":AF0_3" function="internal">
        <lane id=":AF0_3_0" index="0" speed="6.51" length="9.03" shape="507.20,1.60,-70.20 504.75,1.95,-70.20 503.00,3.00,-70.20 501.95,4.75,-70.20 501.60,7.20,-70.20"/>
    </edge>
    <edge id=":AF0_4" function="internal">
        <lane id=":AF0_4_0" index="0" speed="100.00" length="14.40" shape="507.20,1.60,-70.20 492.80,1.60,-70.20"/>
    </edge>
    <edge id=":AF0_5" function="internal">
        <lane id=":AF0_5_0" index="0" speed="3.65" length="2.34" shape="507.20,1.60,-70.20 506.00,0.80,-70.20 505.60,0.00,-70.20"/>
    </edge>
    <edge id=":AF0_9" function="internal">
        <lane id=":AF0_9_0" index="0" speed="3.65" length="2.34" shape="505.60,0.00,-70.20 506.00,-0.80,-70.20 507.20,-1.60,-70.20"/>
    </edge>
    <edge id=":AF0_6" function="internal">
        <lane id=":AF0_6_0" index="0" speed="100.00" length="14.40" shape="492.80,-1.60,-70.20 507.20,-1.60,-70.20"/>
    </edge>
    <edge id=":AF0_7" function="internal">
        <lane id=":AF0_7_0" index="0" speed="8.00" length="5.93" shape="492.80,-1.60,-70.20 496.65,-1.05,-70.20 498.40,-0.00,-70.20"/>
    </edge>
    <edge id=":AF0_8" function="internal">
        <lane id=":AF0_8_0" index="0" speed="3.65" length="2.34" shape="492.80,-1.60,-70.20 494.00,-0.80,-70.20 494.40,0.00,-70.20"/>
    </edge>
    <edge id=":AF0_10" function="internal">
        <lane id=":AF0_10_0" index="0" speed="8.00" length="8.26" shape="498.40,-0.00,-70.20 499.40,0.60,-70.20 501.05,3.35,-70.20 501.60,7.20,-70.20"/>
    </edge>
    <edge id=":AF0_11" function="internal">
        <lane id=":AF0_11_0" index="0" speed="3.65" length="2.34" shape="494.40,0.00,-70.20 494.00,0.80,-70.20 492.80,1.60,-70.20"/>
    </edge>
    <edge id=":AF1_0" function="internal">
        <lane id=":AF1_0_0" index="0" speed="100.00" length="14.40" shape="507.20,101.60,-0.86 492.80,101.60,-0.86"/>
    </edge>
    <edge id=":AF1_1" function="internal">
        <lane id=":AF1_1_0" index="0" speed="8.00" length="5.93" shape="507.20,101.60,-0.86 503.35,101.05,-0.86 501.60,100.00,-0.86"/>
    </edge>
    <edge id=":AF1_2" function="internal">
        <lane id=":AF1_2_0" index="0" speed="3.65" length="2.34" shape="507.20,101.60,-0.86 506.00,100.80,-0.86 505.60,100.00,-0.86"/>
    </edge>
    <edge id=":AF1_9" function="internal">
        <lane id=":AF1_9_0" index="0" speed="8.00" length="8.26" shape="501.60,100.00,-0.86 500.60,99.40,-0.86 498.95,96.65,-0.86 498.40,92.80,-0.86"/>
    </edge>
    <edge id=":AF1_10" function="internal">
        <lane id=":AF1_10_0" index="0" speed="3.65" length="2.34" shape="505.60,100.00,-0.86 506.00,99.20,-0.86 507.20,98.40,-0.86"/>
    </edge>
    <edge id=":AF1_3" function="internal">
        <lane id=":AF1_3_0" index="0" speed="6.51" length="9.03" shape="501.60,92.80,-0.86 501.95,95.25,-0.86 503.00,97.00,-0.86 504.75,98.05,-0.86 507.20,98.40,-0.86"/>
    </edge>
    <edge id=":AF1_4" function="internal">
        <lane id=":AF1_4_0" index="0" speed="8.00" length="14.19" shape="501.60,92.80,-0.86 501.05,96.65,-0.86 499.40,99.40,-0.86 496.65,101.05,-0.86 492.80,101.60,-0.86"/>
    </edge>
    <edge id=":AF1_5" function="internal">
        <lane id=":AF1_5_0" index="0" speed="3.65" length="4.67" shape="501.60,92.80,-0.86 500.80,94.00,-0.86 500.00,94.40,-0.86 499.20,94.00,-0.86 498.40,92.80,-0.86"/>
    </edge>
    <edge id=":AF1_6" function="internal">
        <lane id=":AF1_6_0" index="0" speed="6.51" length="9.03" shape="492.80,98.40,-0.86 495.25,98.05,-0.86 497.00,97.00,-0.86 498.05,95.25,-0.86 498.40,92.80,-0.86"/>
    </edge>
    <edge id=":AF1_7" function="internal">
        <lane id=":AF1_7_0" index="0" speed="100.00" length="14.40" shape="492.80,98.40,-0.86 507.20,98.40,-0.86"/>
    </edge>
    <edge id=":AF1_8" function="internal">
        <lane id=":AF1_8_0" index="0" speed="3.65" length="2.34" shape="492.80,98.40,-0.86 494.00,99.20,-0.86 494.40,100.00,-0.86"/>
    </edge>
    <edge id=":AF1_11" function="internal">
        <lane id=":AF1_11_0" index="0" speed="3.65" length="2.34" shape="494.40,100.00,-0.86 494.00,100.80,-0.86 492.80,101.60,-0.86"/>
    </edge>
    <edge id=":AG0_0" function="internal">
        <lane id=":AG0_0_0" index="0" speed="6.51" length="9.03" shape="598.40,7.20,-73.00 598.05,4.75,-73.00 597.00,3.00,-73.00 595.25,1.95,-73.00 592.80,1.60,-73.00"/>
    </edge>
    <edge id=":AG0_1" function="internal">
        <lane id=":AG0_1_0" index="0" speed="8.00" length="14.19" shape="598.40,7.20,-73.00 598.95,3.35,-73.00 600.60,0.60,-73.00 603.35,-1.05,-73.00 607.20,-1.60,-73.00"/>
    </edge>
    <edge id=":AG0_2" function="internal">
        <lane id=":AG0_2_0" index="0" speed="3.65" length="4.67" shape="598.40,7.20,-73.00 599.20,6.00,-73.00 600.00,5.60,-73.00 600.80,6.00,-73.00 601.60,7.20,-73.00"/>
    </edge>
    <edge id=":AG0_3" function="internal">
        <lane id=":AG0_3_0" index="0" speed="6.51" length="9.03" shape="607.20,1.60,-73.00 604.75,1.95,-73.00 603.00,3.00,-73.00 601.95,4.75,-73.00 601.60,7.20,-73.00"/>
    </edge>
    <edge id=":AG0_4" function="internal">
        <lane id=":AG0_4_0" index="0" speed="100.00" length="14.40" shape="607.20,1.60,-73.00 592.80,1.60,-73.00"/>
    </edge>
    <edge id=":AG0_5" function="internal">
        <lane id=":AG0_5_0" index="0" speed="3.65" length="2.34" shape="607.20,1.60,-73.00 606.00,0.80,-73.00 605.60,0.00,-73.00"/>
    </edge>
    <edge id=":AG0_9" function="internal">
        <lane id=":AG0_9_0" index="0" speed="3.65" length="2.34" shape="605.60,0.00,-73.00 606.00,-0.80,-73.00 607.20,-1.60,-73.00"/>
    </edge>
    <edge id=":AG0_6" function="internal">
        <lane id=":AG0_6_0" index="0" speed="100.00" length="14.40" shape="592.80,-1.60,-73.00 607.20,-1.60,-73.00"/>
    </edge>
    <edge id=":AG0_7" function="internal">
        <lane id=":AG0_7_0" index="0" speed="8.00" length="5.93" shape="592.80,-1.60,-73.00 596.65,-1.05,-73.00 598.40,-0.00,-73.00"/>
    </edge>
    <edge id=":AG0_8" function="internal">
        <lane id=":AG0_8_0" index="0" speed="3.65" length="2.34" shape="592.80,-1.60,-73.00 594.00,-0.80,-73.00 594.40,0.00,-73.00"/>
    </edge>
    <edge id=":AG0_10" function="internal">
        <lane id=":AG0_10_0" index="0" speed="8.00" length="8.26" shape="598.40,-0.00,-73.00 599.40,0.60,-73.00 601.05,3.35,-73.00 601.60,7.20,-73.00"/>
    </edge>
    <edge id=":AG0_11" function="internal">
        <lane id=":AG0_11_0" index="0" speed="3.65" length="2.34" shape="594.40,0.00,-73.00 594.00,0.80,-73.00 592.80,1.60,-73.00"/>
    </edge>
    <edge id=":AG1_0" function="internal">
        <lane id=":AG1_0_0" index="0" speed="100.00" length="14.40" shape="607.20,101.60,-3.93 592.80,101.60,-3.93"/>
    </edge>
    <edge id=":AG1_1" function="internal">
        <lane id=":AG1_1_0" index="0" speed="8.00" length="5.93" shape="607.20,101.60,-3.93 603.35,101.05,-3.93 601.60,100.00,-3.93"/>
    </edge>
    <edge id=":AG1_2" function="internal">
        <lane id=":AG1_2_0" index="0" speed="3.65" length="2.34" shape="607.20,101.60,-3.93 606.00,100.80,-3.93 605.60,100.00,-3.93"/>
    </edge>
    <edge id=":AG1_9" function="internal">
        <lane id=":AG1_9_0" index="0" speed="8.00" length="8.26" shape="601.60,100.00,-3.93 600.60,99.40,-3.93 598.95,96.65,-3.93 598.40,92.80,-3.93"/>
    </edge>
    <edge id=":AG1_10" function="internal">
        <lane id=":AG1_10_0" index="0" speed="3.65" length="2.34" shape="605.60,100.00,-3.93 606.00,99.20,-3.93 607.20,98.40,-3.93"/>
    </edge>
    <edge id=":AG1_3" function="internal">
        <lane id=":AG1_3_0" index="0" speed="6.51" length="9.03" shape="601.60,92.80,-3.93 601.95,95.25,-3.93 603.00,97.00,-3.93 604.75,98.05,-3.93 607.20,98.40,-3.93"/>
    </edge>
    <edge id=":AG1_4" function="internal">
        <lane id=":AG1_4_0" index="0" speed="8.00" length="14.19" shape="601.60,92.80,-3.93 601.05,96.65,-3.93 599.40,99.40,-3.93 596.65,101.05,-3.93 592.80,101.60,-3.93"/>
    </edge>
    <edge id=":AG1_5" function="internal">
        <lane id=":AG1_5_0" index="0" speed="3.65" length="4.67" shape="601.60,92.80,-3.93 600.80,94.00,-3.93 600.00,94.40,-3.93 599.20,94.00,-3.93 598.40,92.80,-3.93"/>
    </edge>
    <edge id=":AG1_6" function="internal">