<?xml version="1.0" encoding="UTF-8"?>

<!-- generated on 08/01/20 19:34:17 by Eclipse SUMO netgenerate Version 1.5.0
<configuration xmlns:xsi="http://www.w3.org/2001/XMLSchema-instance" xsi:noNamespaceSchemaLocation="http://sumo.dlr.de/xsd/netgenerateConfiguration.xsd">

    <grid_network>
        <grid value="true"/>
        <grid.x-number value="41"/>
        <grid.y-number value="2"/>
    </grid_network>

    <output>
        <output-file value="4.net.xml"/>
    </output>

    <processing>
        <perturb-z value="25"/>
    </processing>

    <building_defaults>
        <default.speed value="100"/>
    </building_defaults>

    <random_number>
        <seed value="554605868"/>
    </random_number>

</configuration>
-->

<net version="1.3" junctionCornerDetail="5" limitTurnSpeed="5.50" xmlns:xsi="http://www.w3.org/2001/XMLSchema-instance" xsi:noNamespaceSchemaLocation="http://sumo.dlr.de/xsd/net_file.xsd">

    <location netOffset="0.00,0.00" convBoundary="0.00,0.00,4000.00,100.00" origBoundary="0.00,0.00,4000.00,100.00" projParameter="!"/>

    <edge id=":AA0_0" function="internal">
        <lane id=":AA0_0_0" index="0" speed="6.08" length="7.76" shape="-1.60,3.20,31.78 -1.30,1.10,31.63 -0.40,-0.40,31.52 1.10,-1.30,31.40 3.20,-1.60,31.25"/>
    </edge>
    <edge id=":AA0_1" function="internal">
        <lane id=":AA0_1_0" index="0" speed="3.90" length="2.66" shape="3.20,1.60,31.12 2.50,1.70,31.30 2.00,2.00,31.45 1.70,2.50,31.60 1.60,3.20,31.78"/>
    </edge>
    <edge id=":AA1_0" function="internal">
        <lane id=":AA1_0_0" index="0" speed="6.08" length="7.74" shape="3.20,101.60,-2.37 1.10,101.30,-2.40 -0.40,100.40,-2.42 -1.30,98.90,-2.44 -1.60,96.80,-2.46"/>
    </edge>
    <edge id=":AA1_1" function="internal">
        <lane id=":AA1_1_0" index="0" speed="3.90" length="2.58" shape="1.60,96.80,-2.46 1.70,97.50,-2.46 2.00,98.00,-2.46 2.50,98.30,-2.46 3.20,98.40,-2.46"/>
    </edge>
    <edge id=":AB0_0" function="internal">
        <lane id=":AB0_0_0" index="0" speed="6.51" length="9.03" shape="98.40,7.20,-20.10 98.05,4.75,-20.10 97.00,3.00,-20.10 95.25,1.95,-20.10 92.80,1.60,-20.10"/>
    </edge>
    <edge id=":AB0_1" function="internal">
        <lane id=":AB0_1_0" index="0" speed="8.00" length="14.19" shape="98.40,7.20,-20.10 98.95,3.35,-20.10 100.60,0.60,-20.10 103.35,-1.05,-20.10 107.20,-1.60,-20.10"/>
    </edge>
    <edge id=":AB0_2" function="internal">
        <lane id=":AB0_2_0" index="0" speed="3.65" length="4.67" shape="98.40,7.20,-20.10 99.20,6.00,-20.10 100.00,5.60,-20.10 100.80,6.00,-20.10 101.60,7.20,-20.10"/>
    </edge>
    <edge id=":AB0_3" function="internal">
        <lane id=":AB0_3_0" index="0" speed="6.51" length="9.03" shape="107.20,1.60,-20.10 104.75,1.95,-20.10 103.00,3.00,-20.10 101.95,4.75,-20.10 101.60,7.20,-20.10"/>
    </edge>
    <edge id=":AB0_4" function="internal">
        <lane id=":AB0_4_0" index="0" speed="100.00" length="14.40" shape="107.20,1.60,-20.10 92.80,1.60,-20.10"/>
    </edge>
    <edge id=":AB0_5" function="internal">
        <lane id=":AB0_5_0" index="0" speed="3.65" length="2.34" shape="107.20,1.60,-20.10 106.00,0.80,-20.10 105.60,0.00,-20.10"/>
    </edge>
    <edge id=":AB0_9" function="internal">
        <lane id=":AB0_9_0" index="0" speed="3.65" length="2.34" shape="105.60,0.00,-20.10 106.00,-0.80,-20.10 107.20,-1.60,-20.10"/>
    </edge>
    <edge id=":AB0_6" function="internal">
        <lane id=":AB0_6_0" index="0" speed="100.00" length="14.40" shape="92.80,-1.60,-20.10 107.20,-1.60,-20.10"/>
    </edge>
    <edge id=":AB0_7" function="internal">
        <lane id=":AB0_7_0" index="0" speed="8.00" length="5.93" shape="92.80,-1.60,-20.10 96.65,-1.05,-20.10 98.40,0.00,-20.10"/>
    </edge>
    <edge id=":AB0_8" function="internal">
        <lane id=":AB0_8_0" index="0" speed="3.65" length="2.34" shape="92.80,-1.60,-20.10 94.00,-0.80,-20.10 94.40,0.00,-20.10"/>
    </edge>
    <edge id=":AB0_10" function="internal">
        <lane id=":AB0_10_0" index="0" speed="8.00" length="8.26" shape="98.40,0.00,-20.10 99.40,0.60,-20.10 101.05,3.35,-20.10 101.60,7.20,-20.10"/>
    </edge>
    <edge id=":AB0_11" function="internal">
        <lane id=":AB0_11_0" index="0" speed="3.65" length="2.34" shape="94.40,0.00,-20.10 94.00,0.80,-20.10 92.80,1.60,-20.10"/>
    </edge>
    <edge id=":AB1_0" function="internal">
        <lane id=":AB1_0_0" index="0" speed="100.00" length="14.40" shape="107.20,101.60,33.04 92.80,101.60,33.04"/>
    </edge>
    <edge id=":AB1_1" function="internal">
        <lane id=":AB1_1_0" index="0" speed="8.00" length="5.93" shape="107.20,101.60,33.04 103.35,101.05,33.04 101.60,100.00,33.04"/>
    </edge>
    <edge id=":AB1_2" function="internal">
        <lane id=":AB1_2_0" index="0" speed="3.65" length="2.34" shape="107.20,101.60,33.04 106.00,100.80,33.04 105.60,100.00,33.04"/>
    </edge>
    <edge id=":AB1_9" function="internal">
        <lane id=":AB1_9_0" index="0" speed="8.00" length="8.26" shape="101.60,100.00,33.04 100.60,99.40,33.04 98.95,96.65,33.04 98.40,92.80,33.04"/>
    </edge>
    <edge id=":AB1_10" function="internal">
        <lane id=":AB1_10_0" index="0" speed="3.65" length="2.34" shape="105.60,100.00,33.04 106.00,99.20,33.04 107.20,98.40,33.04"/>
    </edge>
    <edge id=":AB1_3" function="internal">
        <lane id=":AB1_3_0" index="0" speed="6.51" length="9.03" shape="101.60,92.80,33.04 101.95,95.25,33.04 103.00,97.00,33.04 104.75,98.05,33.04 107.20,98.40,33.04"/>
    </edge>
    <edge id=":AB1_4" function="internal">
        <lane id=":AB1_4_0" index="0" speed="8.00" length="14.19" shape="101.60,92.80,33.04 101.05,96.65,33.04 99.40,99.40,33.04 96.65,101.05,33.04 92.80,101.60,33.04"/>
    </edge>
    <edge id=":AB1_5" function="internal">
        <lane id=":AB1_5_0" index="0" speed="3.65" length="4.67" shape="101.60,92.80,33.04 100.80,94.00,33.04 100.00,94.40,33.04 99.20,94.00,33.04 98.40,92.80,33.04"/>
    </edge>
    <edge id=":AB1_6" function="internal">
        <lane id=":AB1_6_0" index="0" speed="6.51" length="9.03" shape="92.80,98.40,33.04 95.25,98.05,33.04 97.00,97.00,33.04 98.05,95.25,33.04 98.40,92.80,33.04"/>
    </edge>
    <edge id=":AB1_7" function="internal">
        <lane id=":AB1_7_0" index="0" speed="100.00" length="14.40" shape="92.80,98.40,33.04 107.20,98.40,33.04"/>
    </edge>
    <edge id=":AB1_8" function="internal">
        <lane id=":AB1_8_0" index="0" speed="3.65" length="2.34" shape="92.80,98.40,33.04 94.00,99.20,33.04 94.40,100.00,33.04"/>
    </edge>
    <edge id=":AB1_11" function="internal">
        <lane id=":AB1_11_0" index="0" speed="3.65" length="2.34" shape="94.40,100.00,33.04 94.00,100.80,33.04 92.80,101.60,33.04"/>
    </edge>
    <edge id=":AC0_0" function="internal">
        <lane id=":AC0_0_0" index="0" speed="6.51" length="9.03" shape="198.40,7.20,5.20 198.05,4.75,5.20 197.00,3.00,5.20 195.25,1.95,5.20 192.80,1.60,5.20"/>
    </edge>
    <edge id=":AC0_1" function="internal">
        <lane id=":AC0_1_0" index="0" speed="8.00" length="14.19" shape="198.40,7.20,5.20 198.95,3.35,5.20 200.60,0.60,5.20 203.35,-1.05,5.20 207.20,-1.60,5.20"/>
    </edge>
    <edge id=":AC0_2" function="internal">
        <lane id=":AC0_2_0" index="0" speed="3.65" length="4.67" shape="198.40,7.20,5.20 199.20,6.00,5.20 200.00,5.60,5.20 200.80,6.00,5.20 201.60,7.20,5.20"/>
    </edge>
    <edge id=":AC0_3" function="internal">
        <lane id=":AC0_3_0" index="0" speed="6.51" length="9.03" shape="207.20,1.60,5.20 204.75,1.95,5.20 203.00,3.00,5.20 201.95,4.75,5.20 201.60,7.20,5.20"/>
    </edge>
    <edge id=":AC0_4" function="internal">
        <lane id=":AC0_4_0" index="0" speed="100.00" length="14.40" shape="207.20,1.60,5.20 192.80,1.60,5.20"/>
    </edge>
    <edge id=":AC0_5" function="internal">
        <lane id=":AC0_5_0" index="0" speed="3.65" length="2.34" shape="207.20,1.60,5.20 206.00,0.80,5.20 205.60,0.00,5.20"/>
    </edge>
    <edge id=":AC0_9" function="internal">
        <lane id=":AC0_9_0" index="0" speed="3.65" length="2.34" shape="205.60,0.00,5.20 206.00,-0.80,5.20 207.20,-1.60,5.20"/>
    </edge>
    <edge id=":AC0_6" function="internal">
        <lane id=":AC0_6_0" index="0" speed="100.00" length="14.40" shape="192.80,-1.60,5.20 207.20,-1.60,5.20"/>
    </edge>
    <edge id=":AC0_7" function="internal">
        <lane id=":AC0_7_0" index="0" speed="8.00" length="5.93" shape="192.80,-1.60,5.20 196.65,-1.05,5.20 198.40,0.00,5.20"/>
    </edge>
    <edge id=":AC0_8" function="internal">
        <lane id=":AC0_8_0" index="0" speed="3.65" length="2.34" shape="192.80,-1.60,5.20 194.00,-0.80,5.20 194.40,0.00,5.20"/>
    </edge>
    <edge id=":AC0_10" function="internal">
        <lane id=":AC0_10_0" index="0" speed="8.00" length="8.26" shape="198.40,0.00,5.20 199.40,0.60,5.20 201.05,3.35,5.20 201.60,7.20,5.20"/>
    </edge>
    <edge id=":AC0_11" function="internal">
        <lane id=":AC0_11_0" index="0" speed="3.65" length="2.34" shape="194.40,0.00,5.20 194.00,0.80,5.20 192.80,1.60,5.20"/>
    </edge>
    <edge id=":AC1_0" function="internal">
        <lane id=":AC1_0_0" index="0" speed="100.00" length="14.40" shape="207.20,101.60,-5.49 192.80,101.60,-5.49"/>
    </edge>
    <edge id=":AC1_1" function="internal">
        <lane id=":AC1_1_0" index="0" speed="8.00" length="5.93" shape="207.20,101.60,-5.49 203.35,101.05,-5.49 201.60,100.00,-5.49"/>
    </edge>
    <edge id=":AC1_2" function="internal">
        <lane id=":AC1_2_0" index="0" speed="3.65" length="2.34" shape="207.20,101.60,-5.49 206.00,100.80,-5.49 205.60,100.00,-5.49"/>
    </edge>
    <edge id=":AC1_9" function="internal">
        <lane id=":AC1_9_0" index="0" speed="8.00" length="8.26" shape="201.60,100.00,-5.49 200.60,99.40,-5.49 198.95,96.65,-5.49 198.40,92.80,-5.49"/>
    </edge>
    <edge id=":AC1_10" function="internal">
        <lane id=":AC1_10_0" index="0" speed="3.65" length="2.34" shape="205.60,100.00,-5.49 206.00,99.20,-5.49 207.20,98.40,-5.49"/>
    </edge>
    <edge id=":AC1_3" function="internal">
        <lane id=":AC1_3_0" index="0" speed="6.51" length="9.03" shape="201.60,92.80,-5.49 201.95,95.25,-5.49 203.00,97.00,-5.49 204.75,98.05,-5.49 207.20,98.40,-5.49"/>
    </edge>
    <edge id=":AC1_4" function="internal">
        <lane id=":AC1_4_0" index="0" speed="8.00" length="14.19" shape="201.60,92.80,-5.49 201.05,96.65,-5.49 199.40,99.40,-5.49 196.65,101.05,-5.49 192.80,101.60,-5.49"/>
    </edge>
    <edge id=":AC1_5" function="internal">
        <lane id=":AC1_5_0" index="0" speed="3.65" length="4.67" shape="201.60,92.80,-5.49 200.80,94.00,-5.49 200.00,94.40,-5.49 199.20,94.00,-5.49 198.40,92.80,-5.49"/>
    </edge>
    <edge id=":AC1_6" function="internal">
        <lane id=":AC1_6_0" index="0" speed="6.51" length="9.03" shape="192.80,98.40,-5.49 195.25,98.05,-5.49 197.00,97.00,-5.49 198.05,95.25,-5.49 198.40,92.80,-5.49"/>
    </edge>
    <edge id=":AC1_7" function="internal">
        <lane id=":AC1_7_0" index="0" speed="100.00" length="14.40" shape="192.80,98.40,-5.49 207.20,98.40,-5.49"/>
    </edge>
    <edge id=":AC1_8" function="internal">
        <lane id=":AC1_8_0" index="0" speed="3.65" length="2.34" shape="192.80,98.40,-5.49 194.00,99.20,-5.49 194.40,100.00,-5.49"/>
    </edge>
    <edge id=":AC1_11" function="internal">
        <lane id=":AC1_11_0" index="0" speed="3.65" length="2.34" shape="194.40,100.00,-5.49 194.00,100.80,-5.49 192.80,101.60,-5.49"/>
    </edge>
    <edge id=":AD0_0" function="internal">
        <lane id=":AD0_0_0" index="0" speed="6.51" length="9.03" shape="298.40,7.20,-12.68 298.05,4.75,-12.68 297.00,3.00,-12.68 295.25,1.95,-12.68 292.80,1.60,-12.68"/>
    </edge>
    <edge id=":AD0_1" function="internal">
        <lane id=":AD0_1_0" index="0" speed="8.00" length="14.19" shape="298.40,7.20,-12.68 298.95,3.35,-12.68 300.60,0.60,-12.68 303.35,-1.05,-12.68 307.20,-1.60,-12.68"/>
    </edge>
    <edge id=":AD0_2" function="internal">
        <lane id=":AD0_2_0" index="0" speed="3.65" length="4.67" shape="298.40,7.20,-12.68 299.20,6.00,-12.68 300.00,5.60,-12.68 300.80,6.00,-12.68 301.60,7.20,-12.68"/>
    </edge>
    <edge id=":AD0_3" function="internal">
        <lane id=":AD0_3_0" index="0" speed="6.51" length="9.03" shape="307.20,1.60,-12.68 304.75,1.95,-12.68 303.00,3.00,-12.68 301.95,4.75,-12.68 301.60,7.20,-12.68"/>
    </edge>
    <edge id=":AD0_4" function="internal">
        <lane id=":AD0_4_0" index="0" speed="100.00" length="14.40" shape="307.20,1.60,-12.68 292.80,1.60,-12.68"/>
    </edge>
    <edge id=":AD0_5" function="internal">
        <lane id=":AD0_5_0" index="0" speed="3.65" length="2.34" shape="307.20,1.60,-12.68 306.00,0.80,-12.68 305.60,0.00,-12.68"/>
    </edge>
    <edge id=":AD0_9" function="internal">
        <lane id=":AD0_9_0" index="0" speed="3.65" length="2.34" shape="305.60,0.00,-12.68 306.00,-0.80,-12.68 307.20,-1.60,-12.68"/>
    </edge>
    <edge id=":AD0_6" function="internal">
        <lane id=":AD0_6_0" index="0" speed="100.00" length="14.40" shape="292.80,-1.60,-12.68 307.20,-1.60,-12.68"/>
    </edge>
    <edge id=":AD0_7" function="internal">
        <lane id=":AD0_7_0" index="0" speed="8.00" length="5.93" shape="292.80,-1.60,-12.68 296.65,-1.05,-12.68 298.40,-0.00,-12.68"/>
    </edge>
    <edge id=":AD0_8" function="internal">
        <lane id=":AD0_8_0" index="0" speed="3.65" length="2.34" shape="292.80,-1.60,-12.68 294.00,-0.80,-12.68 294.40,0.00,-12.68"/>
    </edge>
    <edge id=":AD0_10" function="internal">
        <lane id=":AD0_10_0" index="0" speed="8.00" length="8.26" shape="298.40,-0.00,-12.68 299.40,0.60,-12.68 301.05,3.35,-12.68 301.60,7.20,-12.68"/>
    </edge>
    <edge id=":AD0_11" function="internal">
        <lane id=":AD0_11_0" index="0" speed="3.65" length="2.34" shape="294.40,0.00,-12.68 294.00,0.80,-12.68 292.80,1.60,-12.68"/>
    </edge>
    <edge id=":AD1_0" function="internal">
        <lane id=":AD1_0_0" index="0" speed="100.00" length="14.40" shape="307.20,101.60,4.45 292.80,101.60,4.45"/>
    </edge>
    <edge id=":AD1_1" function="internal">
        <lane id=":AD1_1_0" index="0" speed="8.00" length="5.93" shape="307.20,101.60,4.45 303.35,101.05,4.45 301.60,100.00,4.45"/>
    </edge>
    <edge id=":AD1_2" function="internal">
        <lane id=":AD1_2_0" index="0" speed="3.65" length="2.34" shape="307.20,101.60,4.45 306.00,100.80,4.45 305.60,100.00,4.45"/>
    </edge>
    <edge id=":AD1_9" function="internal">
        <lane id=":AD1_9_0" index="0" speed="8.00" length="8.26" shape="301.60,100.00,4.45 300.60,99.40,4.45 298.95,96.65,4.45 298.40,92.80,4.45"/>
    </edge>
    <edge id=":AD1_10" function="internal">
        <lane id=":AD1_10_0" index="0" speed="3.65" length="2.34" shape="305.60,100.00,4.45 306.00,99.20,4.45 307.20,98.40,4.45"/>
    </edge>
    <edge id=":AD1_3" function="internal">
        <lane id=":AD1_3_0" index="0" speed="6.51" length="9.03" shape="301.60,92.80,4.45 301.95,95.25,4.45 303.00,97.00,4.45 304.75,98.05,4.45 307.20,98.40,4.45"/>
    </edge>
    <edge id=":AD1_4" function="internal">
        <lane id=":AD1_4_0" index="0" speed="8.00" length="14.19" shape="301.60,92.80,4.45 301.05,96.65,4.45 299.40,99.40,4.45 296.65,101.05,4.45 292.80,101.60,4.45"/>
    </edge>
    <edge id=":AD1_5" function="internal">
        <lane id=":AD1_5_0" index="0" speed="3.65" length="4.67" shape="301.60,92.80,4.45 300.80,94.00,4.45 300.00,94.40,4.45 299.20,94.00,4.45 298.40,92.80,4.45"/>
    </edge>
    <edge id=":AD1_6" function="internal">
        <lane id=":AD1_6_0" index="0" speed="6.51" length="9.03" shape="292.80,98.40,4.45 295.25,98.05,4.45 297.00,97.00,4.45 298.05,95.25,4.45 298.40,92.80,4.45"/>
    </edge>
    <edge id=":AD1_7" function="internal">
        <lane id=":AD1_7_0" index="0" speed="100.00" length="14.40" shape="292.80,98.40,4.45 307.20,98.40,4.45"/>
    </edge>
    <edge id=":AD1_8" function="internal">
        <lane id=":AD1_8_0" index="0" speed="3.65" length="2.34" shape="292.80,98.40,4.45 294.00,99.20,4.45 294.40,100.00,4.45"/>
    </edge>
    <edge id=":AD1_11" function="internal">
        <lane id=":AD1_11_0" index="0" speed="3.65" length="2.34" shape="294.40,100.00,4.45 294.00,100.80,4.45 292.80,101.60,4.45"/>
    </edge>
    <edge id=":AE0_0" function="internal">
        <lane id=":AE0_0_0" index="0" speed="6.51" length="9.03" shape="398.40,7.20,-40.04 398.05,4.75,-40.04 397.00,3.00,-40.04 395.25,1.95,-40.04 392.80,1.60,-40.04"/>
    </edge>
    <edge id=":AE0_1" function="internal">
        <lane id=":AE0_1_0" index="0" speed="8.00" length="14.19" shape="398.40,7.20,-40.04 398.95,3.35,-40.04 400.60,0.60,-40.04 403.35,-1.05,-40.04 407.20,-1.60,-40.04"/>
    </edge>
    <edge id=":AE0_2" function="internal">
        <lane id=":AE0_2_0" index="0" speed="3.65" length="4.67" shape="398.40,7.20,-40.04 399.20,6.00,-40.04 400.00,5.60,-40.04 400.80,6.00,-40.04 401.60,7.20,-40.04"/>
    </edge>
    <edge id=":AE0_3" function="internal">
        <lane id=":AE0_3_0" index="0" speed="6.51" length="9.03" shape="407.20,1.60,-40.04 404.75,1.95,-40.04 403.00,3.00,-40.04 401.95,4.75,-40.04 401.60,7.20,-40.04"/>
    </edge>
    <edge id=":AE0_4" function="internal">
        <lane id=":AE0_4_0" index="0" speed="100.00" length="14.40" shape="407.20,1.60,-40.04 392.80,1.60,-40.04"/>
    </edge>
    <edge id=":AE0_5" function="internal">
        <lane id=":AE0_5_0" index="0" speed="3.65" length="2.34" shape="407.20,1.60,-40.04 406.00,0.80,-40.04 405.60,0.00,-40.04"/>
    </edge>
    <edge id=":AE0_9" function="internal">
        <lane id=":AE0_9_0" index="0" speed="3.65" length="2.34" shape="405.60,0.00,-40.04 406.00,-0.80,-40.04 407.20,-1.60,-40.04"/>
    </edge>
    <edge id=":AE0_6" function="internal">
        <lane id=":AE0_6_0" index="0" speed="100.00" length="14.40" shape="392.80,-1.60,-40.04 407.20,-1.60,-40.04"/>
    </edge>
    <edge id=":AE0_7" function="internal">
        <lane id=":AE0_7_0" index="0" speed="8.00" length="5.93" shape="392.80,-1.60,-40.04 396.65,-1.05,-40.04 398.40,-0.00,-40.04"/>
    </edge>
    <edge id=":AE0_8" function="internal">
        <lane id=":AE0_8_0" index="0" speed="3.65" length="2.34" shape="392.80,-1.60,-40.04 394.00,-0.80,-40.04 394.40,0.00,-40.04"/>
    </edge>
    <edge id=":AE0_10" function="internal">
        <lane id=":AE0_10_0" index="0" speed="8.00" length="8.26" shape="398.40,-0.00,-40.04 399.40,0.60,-40.04 401.05,3.35,-40.04 401.60,7.20,-40.04"/>
    </edge>
    <edge id=":AE0_11" function="internal">
        <lane id=":AE0_11_0" index="0" speed="3.65" length="2.34" shape="394.40,0.00,-40.04 394.00,0.80,-40.04 392.80,1.60,-40.04"/>
    </edge>
    <edge id=":AE1_0" function="internal">
        <lane id=":AE1_0_0" index="0" speed="100.00" length="14.40" shape="407.20,101.60,11.68 392.80,101.60,11.68"/>
    </edge>
    <edge id=":AE1_1" function="internal">
        <lane id=":AE1_1_0" index="0" speed="8.00" length="5.93" shape="407.20,101.60,11.68 403.35,101.05,11.68 401.60,100.00,11.68"/>
    </edge>
    <edge id=":AE1_2" function="internal">
        <lane id=":AE1_2_0" index="0" speed="3.65" length="2.34" shape="407.20,101.60,11.68 406.00,100.80,11.68 405.60,100.00,11.68"/>
    </edge>
    <edge id=":AE1_9" function="internal">
        <lane id=":AE1_9_0" index="0" speed="8.00" length="8.26" shape="401.60,100.00,11.68 400.60,99.40,11.68 398.95,96.65,11.68 398.40,92.80,11.68"/>
    </edge>
    <edge id=":AE1_10" function="internal">
        <lane id=":AE1_10_0" index="0" speed="3.65" length="2.34" shape="405.60,100.00,11.68 406.00,99.20,11.68 407.20,98.40,11.68"/>
    </edge>
    <edge id=":AE1_3" function="internal">
        <lane id=":AE1_3_0" index="0" speed="6.51" length="9.03" shape="401.60,92.80,11.68 401.95,95.25,11.68 403.00,97.00,11.68 404.75,98.05,11.68 407.20,98.40,11.68"/>
    </edge>
    <edge id=":AE1_4" function="internal">
        <lane id=":AE1_4_0" index="0" speed="8.00" length="14.19" shape="401.60,92.80,11.68 401.05,96.65,11.68 399.40,99.40,11.68 396.65,101.05,11.68 392.80,101.60,11.68"/>
    </edge>
    <edge id=":AE1_5" function="internal">
        <lane id=":AE1_5_0" index="0" speed="3.65" length="4.67" shape="401.60,92.80,11.68 400.80,94.00,11.68 400.00,94.40,11.68 399.20,94.00,11.68 398.40,92.80,11.68"/>
    </edge>
    <edge id=":AE1_6" function="internal">
        <lane id=":AE1_6_0" index="0" speed="6.51" length="9.03" shape="392.80,98.40,11.68 395.25,98.05,11.68 397.00,97.00,11.68 398.05,95.25,11.68 398.40,92.80,11.68"/>
    </edge>
    <edge id=":AE1_7" function="internal">
        <lane id=":AE1_7_0" index="0" speed="100.00" length="14.40" shape="392.80,98.40,11.68 407.20,98.40,11.68"/>
    </edge>
    <edge id=":AE1_8" function="internal">
        <lane id=":AE1_8_0" index="0" speed="3.65" length="2.34" shape="392.80,98.40,11.68 394.00,99.20,11.68 394.40,100.00,11.68"/>
    </edge>
    <edge id=":AE1_11" function="internal">
        <lane id=":AE1_11_0" index="0" speed="3.65" length="2.34" shape="394.40,100.00,11.68 394.00,100.80,11.68 392.80,101.60,11.68"/>
    </edge>
    <edge id=":AF0_0" function="internal">
        <lane id=":AF0_0_0" index="0" speed="6.51" length="9.03" shape="498.40,7.20,-14.25 498.05,4.75,-14.25 497.00,3.00,-14.25 495.25,1.95,-14.25 492.80,1.60,-14.25"/>
    </edge>
    <edge id=":AF0_1" function="internal">
        <lane id=":AF0_1_0" index="0" speed="8.00" length="14.19" shape="498.40,7.20,-14.25 498.95,3.35,-14.25 500.60,0.60,-14.25 503.35,-1.05,-14.25 507.20,-1.60,-14.25"/>
    </edge>
    <edge id=":AF0_2" function="internal">
        <lane id=":AF0_2_0" index="0" speed="3.65" length="4.67" shape="498.40,7.20,-14.25 499.20,6.00,-14.25 500.00,5.60,-14.25 500.80,6.00,-14.25 501.60,7.20,-14.25"/>
    </edge>
    <edge id=":AF0_3" function="internal">
        <lane id=":AF0_3_0" index="0" speed="6.51" length="9.03" shape="507.20,1.60,-14.25 504.75,1.95,-14.25 503.00,3.00,-14.25 501.95,4.75,-14.25 501.60,7.20,-14.25"/>
    </edge>
    <edge id=":AF0_4" function="internal">
        <lane id=":AF0_4_0" index="0" speed="100.00" length="14.40" shape="507.20,1.60,-14.25 492.80,1.60,-14.25"/>
    </edge>
    <edge id=":AF0_5" function="internal">
        <lane id=":AF0_5_0" index="0" speed="3.65" length="2.34" shape="507.20,1.60,-14.25 506.00,0.80,-14.25 505.60,0.00,-14.25"/>
    </edge>
    <edge id=":AF0_9" function="internal">
        <lane id=":AF0_9_0" index="0" speed="3.65" length="2.34" shape="505.60,0.00,-14.25 506.00,-0.80,-14.25 507.20,-1.60,-14.25"/>
    </edge>
    <edge id=":AF0_6" function="internal">
        <lane id=":AF0_6_0" index="0" speed="100.00" length="14.40" shape="492.80,-1.60,-14.25 507.20,-1.60,-14.25"/>
    </edge>
    <edge id=":AF0_7" function="internal">
        <lane id=":AF0_7_0" index="0" speed="8.00" length="5.93" shape="492.80,-1.60,-14.25 496.65,-1.05,-14.25 498.40,-0.00,-14.25"/>
    </edge>
    <edge id=":AF0_8" function="internal">
        <lane id=":AF0_8_0" index="0" speed="3.65" length="2.34" shape="492.80,-1.60,-14.25 494.00,-0.80,-14.25 494.40,0.00,-14.25"/>
    </edge>
    <edge id=":AF0_10" function="internal">
        <lane id=":AF0_10_0" index="0" speed="8.00" length="8.26" shape="498.40,-0.00,-14.25 499.40,0.60,-14.25 501.05,3.35,-14.25 501.60,7.20,-14.25"/>
    </edge>
    <edge id=":AF0_11" function="internal">
        <lane id=":AF0_11_0" index="0" speed="3.65" length="2.34" shape="494.40,0.00,-14.25 494.00,0.80,-14.25 492.80,1.60,-14.25"/>
    </edge>
    <edge id=":AF1_0" function="internal">
        <lane id=":AF1_0_0" index="0" speed="100.00" length="14.40" shape="507.20,101.60,-19.84 492.80,101.60,-19.84"/>
    </edge>
    <edge id=":AF1_1" function="internal">
        <lane id=":AF1_1_0" index="0" speed="8.00" length="5.93" shape="507.20,101.60,-19.84 503.35,101.05,-19.84 501.60,100.00,-19.84"/>
    </edge>
    <edge id=":AF1_2" function="internal">
        <lane id=":AF1_2_0" index="0" speed="3.65" length="2.34" shape="507.20,101.60,-19.84 506.00,100.80,-19.84 505.60,100.00,-19.84"/>
    </edge>
    <edge id=":AF1_9" function="internal">
        <lane id=":AF1_9_0" index="0" speed="8.00" length="8.26" shape="501.60,100.00,-19.84 500.60,99.40,-19.84 498.95,96.65,-19.84 498.40,92.80,-19.84"/>
    </edge>
    <edge id=":AF1_10" function="internal">
        <lane id=":AF1_10_0" index="0" speed="3.65" length="2.34" shape="505.60,100.00,-19.84 506.00,99.20,-19.84 507.20,98.40,-19.84"/>
    </edge>
    <edge id=":AF1_3" function="internal">
        <lane id=":AF1_3_0" index="0" speed="6.51" length="9.03" shape="501.60,92.80,-19.84 501.95,95.25,-19.84 503.00,97.00,-19.84 504.75,98.05,-19.84 507.20,98.40,-19.84"/>
    </edge>
    <edge id=":AF1_4" function="internal">
        <lane id=":AF1_4_0" index="0" speed="8.00" length="14.19" shape="501.60,92.80,-19.84 501.05,96.65,-19.84 499.40,99.40,-19.84 496.65,101.05,-19.84 492.80,101.60,-19.84"/>
    </edge>
    <edge id=":AF1_5" function="internal">
        <lane id=":AF1_5_0" index="0" speed="3.65" length="4.67" shape="501.60,92.80,-19.84 500.80,94.00,-19.84 500.00,94.40,-19.84 499.20,94.00,-19.84 498.40,92.80,-19.84"/>
    </edge>
    <edge id=":AF1_6" function="internal">
        <lane id=":AF1_6_0" index="0" speed="6.51" length="9.03" shape="492.80,98.40,-19.84 495.25,98.05,-19.84 497.00,97.00,-19.84 498.05,95.25,-19.84 498.40,92.80,-19.84"/>
    </edge>
    <edge id=":AF1_7" function="internal">
        <lane id=":AF1_7_0" index="0" speed="100.00" length="14.40" shape="492.80,98.40,-19.84 507.20,98.40,-19.84"/>
    </edge>
    <edge id=":AF1_8" function="internal">
        <lane id=":AF1_8_0" index="0" speed="3.65" length="2.34" shape="492.80,98.40,-19.84 494.00,99.20,-19.84 494.40,100.00,-19.84"/>
    </edge>
    <edge id=":AF1_11" function="internal">
        <lane id=":AF1_11_0" index="0" speed="3.65" length="2.34" shape="494.40,100.00,-19.84 494.00,100.80,-19.84 492.80,101.60,-19.84"/>
    </edge>
    <edge id=":AG0_0" function="internal">
        <lane id=":AG0_0_0" index="0" speed="6.51" length="9.03" shape="598.40,7.20,-18.39 598.05,4.75,-18.39 597.00,3.00,-18.39 595.25,1.95,-18.39 592.80,1.60,-18.39"/>
    </edge>
    <edge id=":AG0_1" function="internal">
        <lane id=":AG0_1_0" index="0" speed="8.00" length="14.19" shape="598.40,7.20,-18.39 598.95,3.35,-18.39 600.60,0.60,-18.39 603.35,-1.05,-18.39 607.20,-1.60,-18.39"/>
    </edge>
    <edge id=":AG0_2" function="internal">
        <lane id=":AG0_2_0" index="0" speed="3.65" length="4.67" shape="598.40,7.20,-18.39 599.20,6.00,-18.39 600.00,5.60,-18.39 600.80,6.00,-18.39 601.60,7.20,-18.39"/>
    </edge>
    <edge id=":AG0_3" function="internal">
        <lane id=":AG0_3_0" index="0" speed="6.51" length="9.03" shape="607.20,1.60,-18.39 604.75,1.95,-18.39 603.00,3.00,-18.39 601.95,4.75,-18.39 601.60,7.20,-18.39"/>
    </edge>
    <edge id=":AG0_4" function="internal">
        <lane id=":AG0_4_0" index="0" speed="100.00" length="14.40" shape="607.20,1.60,-18.39 592.80,1.60,-18.39"/>
    </edge>
    <edge id=":AG0_5" function="internal">
        <lane id=":AG0_5_0" index="0" speed="3.65" length="2.34" shape="607.20,1.60,-18.39 606.00,0.80,-18.39 605.60,0.00,-18.39"/>
    </edge>
    <edge id=":AG0_9" function="internal">
        <lane id=":AG0_9_0" index="0" speed="3.65" length="2.34" shape="605.60,0.00,-18.39 606.00,-0.80,-18.39 607.20,-1.60,-18.39"/>
    </edge>
    <edge id=":AG0_6" function="internal">
        <lane id=":AG0_6_0" index="0" speed="100.00" length="14.40" shape="592.80,-1.60,-18.39 607.20,-1.60,-18.39"/>
    </edge>
    <edge id=":AG0_7" function="internal">
        <lane id=":AG0_7_0" index="0" speed="8.00" length="5.93" shape="592.80,-1.60,-18.39 596.65,-1.05,-18.39 598.40,0.00,-18.39"/>
    </edge>
    <edge id=":AG0_8" function="internal">
        <lane id=":AG0_8_0" index="0" speed="3.65" length="2.34" shape="592.80,-1.60,-18.39 594.00,-0.80,-18.39 594.40,0.00,-18.39"/>
    </edge>
    <edge id=":AG0_10" function="internal">
        <lane id=":AG0_10_0" index="0" speed="8.00" length="8.26" shape="598.40,0.00,-18.39 599.40,0.60,-18.39 601.05,3.35,-18.39 601.60,7.20,-18.39"/>
    </edge>
    <edge id=":AG0_11" function="internal">
        <lane id=":AG0_11_0" index="0" speed="3.65" length="2.34" shape="594.40,0.00,-18.39 594.00,0.80,-18.39 592.80,1.60,-18.39"/>
    </edge>
    <edge id=":AG1_0" function="internal">
        <lane id=":AG1_0_0" index="0" speed="100.00" length="14.40" shape="607.20,101.60,3.39 592.80,101.60,3.39"/>
    </edge>
    <edge id=":AG1_1" function="internal">
        <lane id=":AG1_1_0" index="0" speed="8.00" length="5.93" shape="607.20,101.60,3.39 603.35,101.05,3.39 601.60,100.00,3.39"/>
    </edge>
    <edge id=":AG1_2" function="internal">
        <lane id=":AG1_2_0" index="0" speed="3.65" length="2.34" shape="607.20,101.60,3.39 606.00,100.80,3.39 605.60,100.00,3.39"/>
    </edge>
    <edge id=":AG1_9" function="internal">
        <lane id=":AG1_9_0" index="0" speed="8.00" length="8.26" shape="601.60,100.00,3.39 600.60,99.40,3.39 598.95,96.65,3.39 598.40,92.80,3.39"/>
    </edge>
    <edge id=":AG1_10" function="internal">
        <lane id=":AG1_10_0" index="0" speed="3.65" length="2.34" shape="605.60,100.00,3.39 606.00,99.20,3.39 607.20,98.40,3.39"/>
    </edge>
    <edge id=":AG1_3" function="internal">
        <lane id=":AG1_3_0" index="0" speed="6.51" length="9.03" shape="601.60,92.80,3.39 601.95,95.25,3.39 603.00,97.00,3.39 604.75,98.05,3.39 607.20,98.40,3.39"/>
    </edge>
    <edge id=":AG1_4" function="internal">
        <lane id=":AG1_4_0" index="0" speed="8.00" length="14.19" shape="601.60,92.80,3.39 601.05,96.65,3.39 599.40,99.40,3.39 596.65,101.05,3.39 592.80,101.60,3.39"/>
    </edge>
    <edge id=":AG1_5" function="internal">
        <lane id=":AG1_5_0" index="0" speed="3.65" length="4.67" shape="601.60,92.80,3.39 600.80,94.00,3.39 600.00,94.40,3.39 599.20,94.00,3.39 598.40,92.80,3.39"/>
    </edge>
    <edge id=":AG1_6" function="internal">