<?xml version="1.0" encoding="UTF-8"?>

<!-- generated on 07/28/20 19:12:57 by Eclipse SUMO netgenerate Version 1.5.0
<configuration xmlns:xsi="http://www.w3.org/2001/XMLSchema-instance" xsi:noNamespaceSchemaLocation="http://sumo.dlr.de/xsd/netgenerateConfiguration.xsd">

    <grid_network>
        <grid value="true"/>
        <grid.x-number value="21"/>
        <grid.y-number value="2"/>
    </grid_network>

    <output>
        <output-file value="4.net.xml"/>
    </output>

    <processing>
        <perturb-z value="25"/>
    </processing>

    <building_defaults>
        <default.speed value="100"/>
    </building_defaults>

    <random_number>
        <seed value="5512693"/>
    </random_number>

</configuration>
-->

<net version="1.3" junctionCornerDetail="5" limitTurnSpeed="5.50" xmlns:xsi="http://www.w3.org/2001/XMLSchema-instance" xsi:noNamespaceSchemaLocation="http://sumo.dlr.de/xsd/net_file.xsd">

    <location netOffset="0.00,0.00" convBoundary="0.00,0.00,2000.00,100.00" origBoundary="0.00,0.00,2000.00,100.00" projParameter="!"/>

    <edge id=":A0_0" function="internal">
        <lane id=":A0_0_0" index="0" speed="6.08" length="7.85" shape="-1.60,3.20,55.27 -1.30,1.10,54.91 -0.40,-0.40,54.61 1.10,-1.30,54.31 3.20,-1.60,53.95"/>
    </edge>
    <edge id=":A0_1" function="internal">
        <lane id=":A0_1_0" index="0" speed="3.90" length="3.01" shape="3.20,1.60,53.73 2.50,1.70,54.15 2.00,2.00,54.50 1.70,2.50,54.85 1.60,3.20,55.27"/>
    </edge>
    <edge id=":A1_0" function="internal">
        <lane id=":A1_0_0" index="0" speed="6.08" length="7.75" shape="3.20,101.60,12.68 1.10,101.30,12.76 -0.40,100.40,12.82 -1.30,98.90,12.88 -1.60,96.80,12.96"/>
    </edge>
    <edge id=":A1_1" function="internal">
        <lane id=":A1_1_0" index="0" speed="3.90" length="2.61" shape="1.60,96.80,12.96 1.70,97.50,12.86 2.00,98.00,12.78 2.50,98.30,12.70 3.20,98.40,12.60"/>
    </edge>
    <edge id=":B0_0" function="internal">
        <lane id=":B0_0_0" index="0" speed="6.51" length="9.03" shape="98.40,7.20,-29.90 98.05,4.75,-29.90 97.00,3.00,-29.90 95.25,1.95,-29.90 92.80,1.60,-29.90"/>
    </edge>
    <edge id=":B0_1" function="internal">
        <lane id=":B0_1_0" index="0" speed="8.00" length="14.19" shape="98.40,7.20,-29.90 98.95,3.35,-29.90 100.60,0.60,-29.90 103.35,-1.05,-29.90 107.20,-1.60,-29.90"/>
    </edge>
    <edge id=":B0_2" function="internal">
        <lane id=":B0_2_0" index="0" speed="3.65" length="4.67" shape="98.40,7.20,-29.90 99.20,6.00,-29.90 100.00,5.60,-29.90 100.80,6.00,-29.90 101.60,7.20,-29.90"/>
    </edge>
    <edge id=":B0_3" function="internal">
        <lane id=":B0_3_0" index="0" speed="6.51" length="9.03" shape="107.20,1.60,-29.90 104.75,1.95,-29.90 103.00,3.00,-29.90 101.95,4.75,-29.90 101.60,7.20,-29.90"/>
    </edge>
    <edge id=":B0_4" function="internal">
        <lane id=":B0_4_0" index="0" speed="100.00" length="14.40" shape="107.20,1.60,-29.90 92.80,1.60,-29.90"/>
    </edge>
    <edge id=":B0_5" function="internal">
        <lane id=":B0_5_0" index="0" speed="3.65" length="2.34" shape="107.20,1.60,-29.90 106.00,0.80,-29.90 105.60,0.00,-29.90"/>
    </edge>
    <edge id=":B0_9" function="internal">
        <lane id=":B0_9_0" index="0" speed="3.65" length="2.34" shape="105.60,0.00,-29.90 106.00,-0.80,-29.90 107.20,-1.60,-29.90"/>
    </edge>
    <edge id=":B0_6" function="internal">
        <lane id=":B0_6_0" index="0" speed="100.00" length="14.40" shape="92.80,-1.60,-29.90 107.20,-1.60,-29.90"/>
    </edge>
    <edge id=":B0_7" function="internal">
        <lane id=":B0_7_0" index="0" speed="8.00" length="5.93" shape="92.80,-1.60,-29.90 96.65,-1.05,-29.90 98.40,0.00,-29.90"/>
    </edge>
    <edge id=":B0_8" function="internal">
        <lane id=":B0_8_0" index="0" speed="3.65" length="2.34" shape="92.80,-1.60,-29.90 94.00,-0.80,-29.90 94.40,0.00,-29.90"/>
    </edge>
    <edge id=":B0_10" function="internal">
        <lane id=":B0_10_0" index="0" speed="8.00" length="8.26" shape="98.40,0.00,-29.90 99.40,0.60,-29.90 101.05,3.35,-29.90 101.60,7.20,-29.90"/>
    </edge>
    <edge id=":B0_11" function="internal">
        <lane id=":B0_11_0" index="0" speed="3.65" length="2.34" shape="94.40,0.00,-29.90 94.00,0.80,-29.90 92.80,1.60,-29.90"/>
    </edge>
    <edge id=":B1_0" function="internal">
        <lane id=":B1_0_0" index="0" speed="100.00" length="14.40" shape="107.20,101.60,45.33 92.80,101.60,45.33"/>
    </edge>
    <edge id=":B1_1" function="internal">
        <lane id=":B1_1_0" index="0" speed="8.00" length="5.93" shape="107.20,101.60,45.33 103.35,101.05,45.33 101.60,100.00,45.33"/>
    </edge>
    <edge id=":B1_2" function="internal">
        <lane id=":B1_2_0" index="0" speed="3.65" length="2.34" shape="107.20,101.60,45.33 106.00,100.80,45.33 105.60,100.00,45.33"/>
    </edge>
    <edge id=":B1_9" function="internal">
        <lane id=":B1_9_0" index="0" speed="8.00" length="8.26" shape="101.60,100.00,45.33 100.60,99.40,45.33 98.95,96.65,45.33 98.40,92.80,45.33"/>
    </edge>
    <edge id=":B1_10" function="internal">
        <lane id=":B1_10_0" index="0" speed="3.65" length="2.34" shape="105.60,100.00,45.33 106.00,99.20,45.33 107.20,98.40,45.33"/>
    </edge>
    <edge id=":B1_3" function="internal">
        <lane id=":B1_3_0" index="0" speed="6.51" length="9.03" shape="101.60,92.80,45.33 101.95,95.25,45.33 103.00,97.00,45.33 104.75,98.05,45.33 107.20,98.40,45.33"/>
    </edge>
    <edge id=":B1_4" function="internal">
        <lane id=":B1_4_0" index="0" speed="8.00" length="14.19" shape="101.60,92.80,45.33 101.05,96.65,45.33 99.40,99.40,45.33 96.65,101.05,45.33 92.80,101.60,45.33"/>
    </edge>
    <edge id=":B1_5" function="internal">
        <lane id=":B1_5_0" index="0" speed="3.65" length="4.67" shape="101.60,92.80,45.33 100.80,94.00,45.33 100.00,94.40,45.33 99.20,94.00,45.33 98.40,92.80,45.33"/>
    </edge>
    <edge id=":B1_6" function="internal">
        <lane id=":B1_6_0" index="0" speed="6.51" length="9.03" shape="92.80,98.40,45.33 95.25,98.05,45.33 97.00,97.00,45.33 98.05,95.25,45.33 98.40,92.80,45.33"/>
    </edge>
    <edge id=":B1_7" function="internal">
        <lane id=":B1_7_0" index="0" speed="100.00" length="14.40" shape="92.80,98.40,45.33 107.20,98.40,45.33"/>
    </edge>
    <edge id=":B1_8" function="internal">
        <lane id=":B1_8_0" index="0" speed="3.65" length="2.34" shape="92.80,98.40,45.33 94.00,99.20,45.33 94.40,100.00,45.33"/>
    </edge>
    <edge id=":B1_11" function="internal">
        <lane id=":B1_11_0" index="0" speed="3.65" length="2.34" shape="94.40,100.00,45.33 94.00,100.80,45.33 92.80,101.60,45.33"/>
    </edge>
    <edge id=":C0_0" function="internal">
        <lane id=":C0_0_0" index="0" speed="6.51" length="9.03" shape="198.40,7.20,-58.34 198.05,4.75,-58.34 197.00,3.00,-58.34 195.25,1.95,-58.34 192.80,1.60,-58.34"/>
    </edge>
    <edge id=":C0_1" function="internal">
        <lane id=":C0_1_0" index="0" speed="8.00" length="14.19" shape="198.40,7.20,-58.34 198.95,3.35,-58.34 200.60,0.60,-58.34 203.35,-1.05,-58.34 207.20,-1.60,-58.34"/>
    </edge>
    <edge id=":C0_2" function="internal">
        <lane id=":C0_2_0" index="0" speed="3.65" length="4.67" shape="198.40,7.20,-58.34 199.20,6.00,-58.34 200.00,5.60,-58.34 200.80,6.00,-58.34 201.60,7.20,-58.34"/>
    </edge>
    <edge id=":C0_3" function="internal">
        <lane id=":C0_3_0" index="0" speed="6.51" length="9.03" shape="207.20,1.60,-58.34 204.75,1.95,-58.34 203.00,3.00,-58.34 201.95,4.75,-58.34 201.60,7.20,-58.34"/>
    </edge>
    <edge id=":C0_4" function="internal">
        <lane id=":C0_4_0" index="0" speed="100.00" length="14.40" shape="207.20,1.60,-58.34 192.80,1.60,-58.34"/>
    </edge>
    <edge id=":C0_5" function="internal">
        <lane id=":C0_5_0" index="0" speed="3.65" length="2.34" shape="207.20,1.60,-58.34 206.00,0.80,-58.34 205.60,0.00,-58.34"/>
    </edge>
    <edge id=":C0_9" function="internal">
        <lane id=":C0_9_0" index="0" speed="3.65" length="2.34" shape="205.60,0.00,-58.34 206.00,-0.80,-58.34 207.20,-1.60,-58.34"/>
    </edge>
    <edge id=":C0_6" function="internal">
        <lane id=":C0_6_0" index="0" speed="100.00" length="14.40" shape="192.80,-1.60,-58.34 207.20,-1.60,-58.34"/>
    </edge>
    <edge id=":C0_7" function="internal">
        <lane id=":C0_7_0" index="0" speed="8.00" length="5.93" shape="192.80,-1.60,-58.34 196.65,-1.05,-58.34 198.40,0.00,-58.34"/>
    </edge>
    <edge id=":C0_8" function="internal">
        <lane id=":C0_8_0" index="0" speed="3.65" length="2.34" shape="192.80,-1.60,-58.34 194.00,-0.80,-58.34 194.40,0.00,-58.34"/>
    </edge>
    <edge id=":C0_10" function="internal">
        <lane id=":C0_10_0" index="0" speed="8.00" length="8.26" shape="198.40,0.00,-58.34 199.40,0.60,-58.34 201.05,3.35,-58.34 201.60,7.20,-58.34"/>
    </edge>
    <edge id=":C0_11" function="internal">
        <lane id=":C0_11_0" index="0" speed="3.65" length="2.34" shape="194.40,0.00,-58.34 194.00,0.80,-58.34 192.80,1.60,-58.34"/>
    </edge>
    <edge id=":C1_0" function="internal">
        <lane id=":C1_0_0" index="0" speed="100.00" length="14.40" shape="207.20,101.60,21.50 192.80,101.60,21.50"/>
    </edge>
    <edge id=":C1_1" function="internal">
        <lane id=":C1_1_0" index="0" speed="8.00" length="5.93" shape="207.20,101.60,21.50 203.35,101.05,21.50 201.60,100.00,21.50"/>
    </edge>
    <edge id=":C1_2" function="internal">
        <lane id=":C1_2_0" index="0" speed="3.65" length="2.34" shape="207.20,101.60,21.50 206.00,100.80,21.50 205.60,100.00,21.50"/>
    </edge>
    <edge id=":C1_9" function="internal">
        <lane id=":C1_9_0" index="0" speed="8.00" length="8.26" shape="201.60,100.00,21.50 200.60,99.40,21.50 198.95,96.65,21.50 198.40,92.80,21.50"/>
    </edge>
    <edge id=":C1_10" function="internal">
        <lane id=":C1_10_0" index="0" speed="3.65" length="2.34" shape="205.60,100.00,21.50 206.00,99.20,21.50 207.20,98.40,21.50"/>
    </edge>
    <edge id=":C1_3" function="internal">
        <lane id=":C1_3_0" index="0" speed="6.51" length="9.03" shape="201.60,92.80,21.50 201.95,95.25,21.50 203.00,97.00,21.50 204.75,98.05,21.50 207.20,98.40,21.50"/>
    </edge>
    <edge id=":C1_4" function="internal">
        <lane id=":C1_4_0" index="0" speed="8.00" length="14.19" shape="201.60,92.80,21.50 201.05,96.65,21.50 199.40,99.40,21.50 196.65,101.05,21.50 192.80,101.60,21.50"/>
    </edge>
    <edge id=":C1_5" function="internal">
        <lane id=":C1_5_0" index="0" speed="3.65" length="4.67" shape="201.60,92.80,21.50 200.80,94.00,21.50 200.00,94.40,21.50 199.20,94.00,21.50 198.40,92.80,21.50"/>
    </edge>
    <edge id=":C1_6" function="internal">
        <lane id=":C1_6_0" index="0" speed="6.51" length="9.03" shape="192.80,98.40,21.50 195.25,98.05,21.50 197.00,97.00,21.50 198.05,95.25,21.50 198.40,92.80,21.50"/>
    </edge>
    <edge id=":C1_7" function="internal">
        <lane id=":C1_7_0" index="0" speed="100.00" length="14.40" shape="192.80,98.40,21.50 207.20,98.40,21.50"/>
    </edge>
    <edge id=":C1_8" function="internal">
        <lane id=":C1_8_0" index="0" speed="3.65" length="2.34" shape="192.80,98.40,21.50 194.00,99.20,21.50 194.40,100.00,21.50"/>
    </edge>
    <edge id=":C1_11" function="internal">
        <lane id=":C1_11_0" index="0" speed="3.65" length="2.34" shape="194.40,100.00,21.50 194.00,100.80,21.50 192.80,101.60,21.50"/>
    </edge>
    <edge id=":D0_0" function="internal">
        <lane id=":D0_0_0" index="0" speed="6.51" length="9.03" shape="298.40,7.20,-25.61 298.05,4.75,-25.61 297.00,3.00,-25.61 295.25,1.95,-25.61 292.80,1.60,-25.61"/>
    </edge>
    <edge id=":D0_1" function="internal">
        <lane id=":D0_1_0" index="0" speed="8.00" length="14.19" shape="298.40,7.20,-25.61 298.95,3.35,-25.61 300.60,0.60,-25.61 303.35,-1.05,-25.61 307.20,-1.60,-25.61"/>
    </edge>
    <edge id=":D0_2" function="internal">
        <lane id=":D0_2_0" index="0" speed="3.65" length="4.67" shape="298.40,7.20,-25.61 299.20,6.00,-25.61 300.00,5.60,-25.61 300.80,6.00,-25.61 301.60,7.20,-25.61"/>
    </edge>
    <edge id=":D0_3" function="internal">
        <lane id=":D0_3_0" index="0" speed="6.51" length="9.03" shape="307.20,1.60,-25.61 304.75,1.95,-25.61 303.00,3.00,-25.61 301.95,4.75,-25.61 301.60,7.20,-25.61"/>
    </edge>
    <edge id=":D0_4" function="internal">
        <lane id=":D0_4_0" index="0" speed="100.00" length="14.40" shape="307.20,1.60,-25.61 292.80,1.60,-25.61"/>
    </edge>
    <edge id=":D0_5" function="internal">
        <lane id=":D0_5_0" index="0" speed="3.65" length="2.34" shape="307.20,1.60,-25.61 306.00,0.80,-25.61 305.60,0.00,-25.61"/>
    </edge>
    <edge id=":D0_9" function="internal">
        <lane id=":D0_9_0" index="0" speed="3.65" length="2.34" shape="305.60,0.00,-25.61 306.00,-0.80,-25.61 307.20,-1.60,-25.61"/>
    </edge>
    <edge id=":D0_6" function="internal">
        <lane id=":D0_6_0" index="0" speed="100.00" length="14.40" shape="292.80,-1.60,-25.61 307.20,-1.60,-25.61"/>
    </edge>
    <edge id=":D0_7" function="internal">
        <lane id=":D0_7_0" index="0" speed="8.00" length="5.93" shape="292.80,-1.60,-25.61 296.65,-1.05,-25.61 298.40,-0.00,-25.61"/>
    </edge>
    <edge id=":D0_8" function="internal">
        <lane id=":D0_8_0" index="0" speed="3.65" length="2.34" shape="292.80,-1.60,-25.61 294.00,-0.80,-25.61 294.40,0.00,-25.61"/>
    </edge>
    <edge id=":D0_10" function="internal">
        <lane id=":D0_10_0" index="0" speed="8.00" length="8.26" shape="298.40,-0.00,-25.61 299.40,0.60,-25.61 301.05,3.35,-25.61 301.60,7.20,-25.61"/>
    </edge>
    <edge id=":D0_11" function="internal">
        <lane id=":D0_11_0" index="0" speed="3.65" length="2.34" shape="294.40,0.00,-25.61 294.00,0.80,-25.61 292.80,1.60,-25.61"/>
    </edge>
    <edge id=":D1_0" function="internal">
        <lane id=":D1_0_0" index="0" speed="100.00" length="14.40" shape="307.20,101.60,-1.69 292.80,101.60,-1.69"/>
    </edge>
    <edge id=":D1_1" function="internal">
        <lane id=":D1_1_0" index="0" speed="8.00" length="5.93" shape="307.20,101.60,-1.69 303.35,101.05,-1.69 301.60,100.00,-1.69"/>
    </edge>
    <edge id=":D1_2" function="internal">
        <lane id=":D1_2_0" index="0" speed="3.65" length="2.34" shape="307.20,101.60,-1.69 306.00,100.80,-1.69 305.60,100.00,-1.69"/>
    </edge>
    <edge id=":D1_9" function="internal">
        <lane id=":D1_9_0" index="0" speed="8.00" length="8.26" shape="301.60,100.00,-1.69 300.60,99.40,-1.69 298.95,96.65,-1.69 298.40,92.80,-1.69"/>
    </edge>
    <edge id=":D1_10" function="internal">
        <lane id=":D1_10_0" index="0" speed="3.65" length="2.34" shape="305.60,100.00,-1.69 306.00,99.20,-1.69 307.20,98.40,-1.69"/>
    </edge>
    <edge id=":D1_3" function="internal">
        <lane id=":D1_3_0" index="0" speed="6.51" length="9.03" shape="301.60,92.80,-1.69 301.95,95.25,-1.69 303.00,97.00,-1.69 304.75,98.05,-1.69 307.20,98.40,-1.69"/>
    </edge>
    <edge id=":D1_4" function="internal">
        <lane id=":D1_4_0" index="0" speed="8.00" length="14.19" shape="301.60,92.80,-1.69 301.05,96.65,-1.69 299.40,99.40,-1.69 296.65,101.05,-1.69 292.80,101.60,-1.69"/>
    </edge>
    <edge id=":D1_5" function="internal">
        <lane id=":D1_5_0" index="0" speed="3.65" length="4.67" shape="301.60,92.80,-1.69 300.80,94.00,-1.69 300.00,94.40,-1.69 299.20,94.00,-1.69 298.40,92.80,-1.69"/>
    </edge>
    <edge id=":D1_6" function="internal">
        <lane id=":D1_6_0" index="0" speed="6.51" length="9.03" shape="292.80,98.40,-1.69 295.25,98.05,-1.69 297.00,97.00,-1.69 298.05,95.25,-1.69 298.40,92.80,-1.69"/>
    </edge>
    <edge id=":D1_7" function="internal">
        <lane id=":D1_7_0" index="0" speed="100.00" length="14.40" shape="292.80,98.40,-1.69 307.20,98.40,-1.69"/>
    </edge>
    <edge id=":D1_8" function="internal">
        <lane id=":D1_8_0" index="0" speed="3.65" length="2.34" shape="292.80,98.40,-1.69 294.00,99.20,-1.69 294.40,100.00,-1.69"/>
    </edge>
    <edge id=":D1_11" function="internal">
        <lane id=":D1_11_0" index="0" speed="3.65" length="2.34" shape="294.40,100.00,-1.69 294.00,100.80,-1.69 292.80,101.60,-1.69"/>
    </edge>
    <edge id=":E0_0" function="internal">
        <lane id=":E0_0_0" index="0" speed="6.51" length="9.03" shape="398.40,7.20,6.58 398.05,4.75,6.58 397.00,3.00,6.58 395.25,1.95,6.58 392.80,1.60,6.58"/>
    </edge>
    <edge id=":E0_1" function="internal">
        <lane id=":E0_1_0" index="0" speed="8.00" length="14.19" shape="398.40,7.20,6.58 398.95,3.35,6.58 400.60,0.60,6.58 403.35,-1.05,6.58 407.20,-1.60,6.58"/>
    </edge>
    <edge id=":E0_2" function="internal">
        <lane id=":E0_2_0" index="0" speed="3.65" length="4.67" shape="398.40,7.20,6.58 399.20,6.00,6.58 400.00,5.60,6.58 400.80,6.00,6.58 401.60,7.20,6.58"/>
    </edge>
    <edge id=":E0_3" function="internal">
        <lane id=":E0_3_0" index="0" speed="6.51" length="9.03" shape="407.20,1.60,6.58 404.75,1.95,6.58 403.00,3.00,6.58 401.95,4.75,6.58 401.60,7.20,6.58"/>
    </edge>
    <edge id=":E0_4" function="internal">
        <lane id=":E0_4_0" index="0" speed="100.00" length="14.40" shape="407.20,1.60,6.58 392.80,1.60,6.58"/>
    </edge>
    <edge id=":E0_5" function="internal">
        <lane id=":E0_5_0" index="0" speed="3.65" length="2.34" shape="407.20,1.60,6.58 406.00,0.80,6.58 405.60,0.00,6.58"/>
    </edge>
    <edge id=":E0_9" function="internal">
        <lane id=":E0_9_0" index="0" speed="3.65" length="2.34" shape="405.60,0.00,6.58 406.00,-0.80,6.58 407.20,-1.60,6.58"/>
    </edge>
    <edge id=":E0_6" function="internal">
        <lane id=":E0_6_0" index="0" speed="100.00" length="14.40" shape="392.80,-1.60,6.58 407.20,-1.60,6.58"/>
    </edge>
    <edge id=":E0_7" function="internal">
        <lane id=":E0_7_0" index="0" speed="8.00" length="5.93" shape="392.80,-1.60,6.58 396.65,-1.05,6.58 398.40,-0.00,6.58"/>
    </edge>
    <edge id=":E0_8" function="internal">
        <lane id=":E0_8_0" index="0" speed="3.65" length="2.34" shape="392.80,-1.60,6.58 394.00,-0.80,6.58 394.40,0.00,6.58"/>
    </edge>
    <edge id=":E0_10" function="internal">
        <lane id=":E0_10_0" index="0" speed="8.00" length="8.26" shape="398.40,-0.00,6.58 399.40,0.60,6.58 401.05,3.35,6.58 401.60,7.20,6.58"/>
    </edge>
    <edge id=":E0_11" function="internal">
        <lane id=":E0_11_0" index="0" speed="3.65" length="2.34" shape="394.40,0.00,6.58 394.00,0.80,6.58 392.80,1.60,6.58"/>
    </edge>
    <edge id=":E1_0" function="internal">
        <lane id=":E1_0_0" index="0" speed="100.00" length="14.40" shape="407.20,101.60,32.58 392.80,101.60,32.58"/>
    </edge>
    <edge id=":E1_1" function="internal">
        <lane id=":E1_1_0" index="0" speed="8.00" length="5.93" shape="407.20,101.60,32.58 403.35,101.05,32.58 401.60,100.00,32.58"/>
    </edge>
    <edge id=":E1_2" function="internal">
        <lane id=":E1_2_0" index="0" speed="3.65" length="2.34" shape="407.20,101.60,32.58 406.00,100.80,32.58 405.60,100.00,32.58"/>
    </edge>
    <edge id=":E1_9" function="internal">
        <lane id=":E1_9_0" index="0" speed="8.00" length="8.26" shape="401.60,100.00,32.58 400.60,99.40,32.58 398.95,96.65,32.58 398.40,92.80,32.58"/>
    </edge>
    <edge id=":E1_10" function="internal">
        <lane id=":E1_10_0" index="0" speed="3.65" length="2.34" shape="405.60,100.00,32.58 406.00,99.20,32.58 407.20,98.40,32.58"/>
    </edge>
    <edge id=":E1_3" function="internal">
        <lane id=":E1_3_0" index="0" speed="6.51" length="9.03" shape="401.60,92.80,32.58 401.95,95.25,32.58 403.00,97.00,32.58 404.75,98.05,32.58 407.20,98.40,32.58"/>
    </edge>
    <edge id=":E1_4" function="internal">
        <lane id=":E1_4_0" index="0" speed="8.00" length="14.19" shape="401.60,92.80,32.58 401.05,96.65,32.58 399.40,99.40,32.58 396.65,101.05,32.58 392.80,101.60,32.58"/>
    </edge>
    <edge id=":E1_5" function="internal">
        <lane id=":E1_5_0" index="0" speed="3.65" length="4.67" shape="401.60,92.80,32.58 400.80,94.00,32.58 400.00,94.40,32.58 399.20,94.00,32.58 398.40,92.80,32.58"/>
    </edge>
    <edge id=":E1_6" function="internal">
        <lane id=":E1_6_0" index="0" speed="6.51" length="9.03" shape="392.80,98.40,32.58 395.25,98.05,32.58 397.00,97.00,32.58 398.05,95.25,32.58 398.40,92.80,32.58"/>
    </edge>
    <edge id=":E1_7" function="internal">
        <lane id=":E1_7_0" index="0" speed="100.00" length="14.40" shape="392.80,98.40,32.58 407.20,98.40,32.58"/>
    </edge>
    <edge id=":E1_8" function="internal">
        <lane id=":E1_8_0" index="0" speed="3.65" length="2.34" shape="392.80,98.40,32.58 394.00,99.20,32.58 394.40,100.00,32.58"/>
    </edge>
    <edge id=":E1_11" function="internal">
        <lane id=":E1_11_0" index="0" speed="3.65" length="2.34" shape="394.40,100.00,32.58 394.00,100.80,32.58 392.80,101.60,32.58"/>
    </edge>
    <edge id=":F0_0" function="internal">
        <lane id=":F0_0_0" index="0" speed="6.51" length="9.03" shape="498.40,7.20,15.47 498.05,4.75,15.47 497.00,3.00,15.47 495.25,1.95,15.47 492.80,1.60,15.47"/>
    </edge>
    <edge id=":F0_1" function="internal">
        <lane id=":F0_1_0" index="0" speed="8.00" length="14.19" shape="498.40,7.20,15.47 498.95,3.35,15.47 500.60,0.60,15.47 503.35,-1.05,15.47 507.20,-1.60,15.47"/>
    </edge>
    <edge id=":F0_2" function="internal">
        <lane id=":F0_2_0" index="0" speed="3.65" length="4.67" shape="498.40,7.20,15.47 499.20,6.00,15.47 500.00,5.60,15.47 500.80,6.00,15.47 501.60,7.20,15.47"/>
    </edge>
    <edge id=":F0_3" function="internal">
        <lane id=":F0_3_0" index="0" speed="6.51" length="9.03" shape="507.20,1.60,15.47 504.75,1.95,15.47 503.00,3.00,15.47 501.95,4.75,15.47 501.60,7.20,15.47"/>
    </edge>
    <edge id=":F0_4" function="internal">
        <lane id=":F0_4_0" index="0" speed="100.00" length="14.40" shape="507.20,1.60,15.47 492.80,1.60,15.47"/>
    </edge>
    <edge id=":F0_5" function="internal">
        <lane id=":F0_5_0" index="0" speed="3.65" length="2.34" shape="507.20,1.60,15.47 506.00,0.80,15.47 505.60,0.00,15.47"/>
    </edge>
    <edge id=":F0_9" function="internal">
        <lane id=":F0_9_0" index="0" speed="3.65" length="2.34" shape="505.60,0.00,15.47 506.00,-0.80,15.47 507.20,-1.60,15.47"/>
    </edge>
    <edge id=":F0_6" function="internal">
        <lane id=":F0_6_0" index="0" speed="100.00" length="14.40" shape="492.80,-1.60,15.47 507.20,-1.60,15.47"/>
    </edge>
    <edge id=":F0_7" function="internal">
        <lane id=":F0_7_0" index="0" speed="8.00" length="5.93" shape="492.80,-1.60,15.47 496.65,-1.05,15.47 498.40,-0.00,15.47"/>
    </edge>
    <edge id=":F0_8" function="internal">
        <lane id=":F0_8_0" index="0" speed="3.65" length="2.34" shape="492.80,-1.60,15.47 494.00,-0.80,15.47 494.40,0.00,15.47"/>
    </edge>
    <edge id=":F0_10" function="internal">
        <lane id=":F0_10_0" index="0" speed="8.00" length="8.26" shape="498.40,-0.00,15.47 499.40,0.60,15.47 501.05,3.35,15.47 501.60,7.20,15.47"/>
    </edge>
    <edge id=":F0_11" function="internal">
        <lane id=":F0_11_0" index="0" speed="3.65" length="2.34" shape="494.40,0.00,15.47 494.00,0.80,15.47 492.80,1.60,15.47"/>
    </edge>
    <edge id=":F1_0" function="internal">
        <lane id=":F1_0_0" index="0" speed="100.00" length="14.40" shape="507.20,101.60,22.19 492.80,101.60,22.19"/>
    </edge>
    <edge id=":F1_1" function="internal">
        <lane id=":F1_1_0" index="0" speed="8.00" length="5.93" shape="507.20,101.60,22.19 503.35,101.05,22.19 501.60,100.00,22.19"/>
    </edge>
    <edge id=":F1_2" function="internal">
        <lane id=":F1_2_0" index="0" speed="3.65" length="2.34" shape="507.20,101.60,22.19 506.00,100.80,22.19 505.60,100.00,22.19"/>
    </edge>
    <edge id=":F1_9" function="internal">
        <lane id=":F1_9_0" index="0" speed="8.00" length="8.26" shape="501.60,100.00,22.19 500.60,99.40,22.19 498.95,96.65,22.19 498.40,92.80,22.19"/>
    </edge>
    <edge id=":F1_10" function="internal">
        <lane id=":F1_10_0" index="0" speed="3.65" length="2.34" shape="505.60,100.00,22.19 506.00,99.20,22.19 507.20,98.40,22.19"/>
    </edge>
    <edge id=":F1_3" function="internal">
        <lane id=":F1_3_0" index="0" speed="6.51" length="9.03" shape="501.60,92.80,22.19 501.95,95.25,22.19 503.00,97.00,22.19 504.75,98.05,22.19 507.20,98.40,22.19"/>
    </edge>
    <edge id=":F1_4" function="internal">
        <lane id=":F1_4_0" index="0" speed="8.00" length="14.19" shape="501.60,92.80,22.19 501.05,96.65,22.19 499.40,99.40,22.19 496.65,101.05,22.19 492.80,101.60,22.19"/>
    </edge>
    <edge id=":F1_5" function="internal">
        <lane id=":F1_5_0" index="0" speed="3.65" length="4.67" shape="501.60,92.80,22.19 500.80,94.00,22.19 500.00,94.40,22.19 499.20,94.00,22.19 498.40,92.80,22.19"/>
    </edge>
    <edge id=":F1_6" function="internal">
        <lane id=":F1_6_0" index="0" speed="6.51" length="9.03" shape="492.80,98.40,22.19 495.25,98.05,22.19 497.00,97.00,22.19 498.05,95.25,22.19 498.40,92.80,22.19"/>
    </edge>
    <edge id=":F1_7" function="internal">
        <lane id=":F1_7_0" index="0" speed="100.00" length="14.40" shape="492.80,98.40,22.19 507.20,98.40,22.19"/>
    </edge>
    <edge id=":F1_8" function="internal">
        <lane id=":F1_8_0" index="0" speed="3.65" length="2.34" shape="492.80,98.40,22.19 494.00,99.20,22.19 494.40,100.00,22.19"/>
    </edge>
    <edge id=":F1_11" function="internal">
        <lane id=":F1_11_0" index="0" speed="3.65" length="2.34" shape="494.40,100.00,22.19 494.00,100.80,22.19 492.80,101.60,22.19"/>
    </edge>
    <edge id=":G0_0" function="internal">
        <lane id=":G0_0_0" index="0" speed="6.51" length="9.03" shape="598.40,7.20,25.76 598.05,4.75,25.76 597.00,3.00,25.76 595.25,1.95,25.76 592.80,1.60,25.76"/>
    </edge>
    <edge id=":G0_1" function="internal">
        <lane id=":G0_1_0" index="0" speed="8.00" length="14.19" shape="598.40,7.20,25.76 598.95,3.35,25.76 600.60,0.60,25.76 603.35,-1.05,25.76 607.20,-1.60,25.76"/>
    </edge>
    <edge id=":G0_2" function="internal">
        <lane id=":G0_2_0" index="0" speed="3.65" length="4.67" shape="598.40,7.20,25.76 599.20,6.00,25.76 600.00,5.60,25.76 600.80,6.00,25.76 601.60,7.20,25.76"/>
    </edge>
    <edge id=":G0_3" function="internal">
        <lane id=":G0_3_0" index="0" speed="6.51" length="9.03" shape="607.20,1.60,25.76 604.75,1.95,25.76 603.00,3.00,25.76 601.95,4.75,25.76 601.60,7.20,25.76"/>
    </edge>
    <edge id=":G0_4" function="internal">
        <lane id=":G0_4_0" index="0" speed="100.00" length="14.40" shape="607.20,1.60,25.76 592.80,1.60,25.76"/>
    </edge>
    <edge id=":G0_5" function="internal">
        <lane id=":G0_5_0" index="0" speed="3.65" length="2.34" shape="607.20,1.60,25.76 606.00,0.80,25.76 605.60,0.00,25.76"/>
    </edge>
    <edge id=":G0_9" function="internal">
        <lane id=":G0_9_0" index="0" speed="3.65" length="2.34" shape="605.60,0.00,25.76 606.00,-0.80,25.76 607.20,-1.60,25.76"/>
    </edge>
    <edge id=":G0_6" function="internal">
        <lane id=":G0_6_0" index="0" speed="100.00" length="14.40" shape="592.80,-1.60,25.76 607.20,-1.60,25.76"/>
    </edge>
    <edge id=":G0_7" function="internal">
        <lane id=":G0_7_0" index="0" speed="8.00" length="5.93" shape="592.80,-1.60,25.76 596.65,-1.05,25.76 598.40,0.00,25.76"/>
    </edge>
    <edge id=":G0_8" function="internal">
        <lane id=":G0_8_0" index="0" speed="3.65" length="2.34" shape="592.80,-1.60,25.76 594.00,-0.80,25.76 594.40,0.00,25.76"/>
    </edge>
    <edge id=":G0_10" function="internal">
        <lane id=":G0_10_0" index="0" speed="8.00" length="8.26" shape="598.40,0.00,25.76 599.40,0.60,25.76 601.05,3.35,25.76 601.60,7.20,25.76"/>
    </edge>
    <edge id=":G0_11" function="internal">
        <lane id=":G0_11_0" index="0" speed="3.65" length="2.34" shape="594.40,0.00,25.76 594.00,0.80,25.76 592.80,1.60,25.76"/>
    </edge>
    <edge id=":G1_0" function="internal">
        <lane id=":G1_0_0" index="0" speed="100.00" length="14.40" shape="607.20,101.60,-19.09 592.80,101.60,-19.09"/>
    </edge>
    <edge id=":G1_1" function="internal">
        <lane id=":G1_1_0" index="0" speed="8.00" length="5.93" shape="607.20,101.60,-19.09 603.35,101.05,-19.09 601.60,100.00,-19.09"/>
    </edge>
    <edge id=":G1_2" function="internal">
        <lane id=":G1_2_0" index="0" speed="3.65" length="2.34" shape="607.20,101.60,-19.09 606.00,100.80,-19.09 605.60,100.00,-19.09"/>
    </edge>
    <edge id=":G1_9" function="internal">
        <lane id=":G1_9_0" index="0" speed="8.00" length="8.26" shape="601.60,100.00,-19.09 600.60,99.40,-19.09 598.95,96.65,-19.09 598.40,92.80,-19.09"/>
    </edge>
    <edge id=":G1_10" function="internal">
        <lane id=":G1_10_0" index="0" speed="3.65" length="2.34" shape="605.60,100.00,-19.09 606.00,99.20,-19.09 607.20,98.40,-19.09"/>
    </edge>
    <edge id=":G1_3" function="internal">
        <lane id=":G1_3_0" index="0" speed="6.51" length="9.03" shape="601.60,92.80,-19.09 601.95,95.25,-19.09 603.00,97.00,-19.09 604.75,98.05,-19.09 607.20,98.40,-19.09"/>
    </edge>
    <edge id=":G1_4" function="internal">
        <lane id=":G1_4_0" index="0" speed="8.00" length="14.19" shape="601.60,92.80,-19.09 601.05,96.65,-19.09 599.40,99.40,-19.09 596.65,101.05,-19.09 592.80,101.60,-19.09"/>
    </edge>
    <edge id=":G1_5" function="internal">
        <lane id=":G1_5_0" index="0" speed="3.65" length="4.67" shape="601.60,92.80,-19.09 600.80,94.00,-19.09 600.00,94.40,-19.09 599.20,94.00,-19.09 598.40,92.80,-19.09"/>
    </edge>
    <edge id=":G1_6" function="internal">
        <lane id=":G1_6_0" index="0" speed="6.51" length="9.03" shape="592.80,98.40,-19.09 595.25,98.05,-19.09 597.00,97.00,-19.09 598.05,95.25,-19.09 598.40,92.80,-19.09"/>
    </edge>
    <edge id=":G1_7" function="internal">
        <lane id=":G1_7_0" index="0" speed="100.00" length="14.40" shape="592.80,98.40,-19.09 607.20,98.40,-19.09"/>
    </edge>
    <edge id=":G1_8" function="internal">