<?xml version="1.0" encoding="UTF-8"?>

<!-- generated on 08/01/20 19:34:24 by Eclipse SUMO netgenerate Version 1.5.0
<configuration xmlns:xsi="http://www.w3.org/2001/XMLSchema-instance" xsi:noNamespaceSchemaLocation="http://sumo.dlr.de/xsd/netgenerateConfiguration.xsd">

    <grid_network>
        <grid value="true"/>
        <grid.x-number value="41"/>
        <grid.y-number value="2"/>
    </grid_network>

    <output>
        <output-file value="6.net.xml"/>
    </output>

    <processing>
        <perturb-z value="25"/>
    </processing>

    <building_defaults>
        <default.speed value="100"/>
    </building_defaults>

    <random_number>
        <seed value="871805786"/>
    </random_number>

</configuration>
-->

<net version="1.3" junctionCornerDetail="5" limitTurnSpeed="5.50" xmlns:xsi="http://www.w3.org/2001/XMLSchema-instance" xsi:noNamespaceSchemaLocation="http://sumo.dlr.de/xsd/net_file.xsd">

    <location netOffset="0.00,0.00" convBoundary="0.00,0.00,4000.00,100.00" origBoundary="0.00,0.00,4000.00,100.00" projParameter="!"/>

    <edge id=":AA0_0" function="internal">
        <lane id=":AA0_0_0" index="0" speed="6.08" length="7.77" shape="-1.60,3.20,-9.73 -1.30,1.10,-9.90 -0.40,-0.40,-10.05 1.10,-1.30,-10.20 3.20,-1.60,-10.38"/>
    </edge>
    <edge id=":AA0_1" function="internal">
        <lane id=":AA0_1_0" index="0" speed="3.90" length="2.66" shape="3.20,1.60,-10.38 2.50,1.70,-10.20 2.00,2.00,-10.05 1.70,2.50,-9.90 1.60,3.20,-9.73"/>
    </edge>
    <edge id=":AA1_0" function="internal">
        <lane id=":AA1_0_0" index="0" speed="6.08" length="7.74" shape="3.20,101.60,10.70 1.10,101.30,10.65 -0.40,100.40,10.61 -1.30,98.90,10.57 -1.60,96.80,10.51"/>
    </edge>
    <edge id=":AA1_1" function="internal">
        <lane id=":AA1_1_0" index="0" speed="3.90" length="2.59" shape="1.60,96.80,10.51 1.70,97.50,10.58 2.00,98.00,10.63 2.50,98.30,10.68 3.20,98.40,10.74"/>
    </edge>
    <edge id=":AB0_0" function="internal">
        <lane id=":AB0_0_0" index="0" speed="6.51" length="9.03" shape="98.40,7.20,-9.16 98.05,4.75,-9.19 97.00,3.00,-9.21 95.25,1.95,-9.23 92.80,1.60,-9.25"/>
    </edge>
    <edge id=":AB0_1" function="internal">
        <lane id=":AB0_1_0" index="0" speed="8.00" length="14.19" shape="98.40,7.20,-9.16 98.95,3.35,-9.16 100.60,0.60,-9.16 103.35,-1.05,-9.16 107.20,-1.60,-9.16"/>
    </edge>
    <edge id=":AB0_2" function="internal">
        <lane id=":AB0_2_0" index="0" speed="3.65" length="4.67" shape="98.40,7.20,-9.16 99.20,6.00,-9.16 100.00,5.60,-9.16 100.80,6.00,-9.16 101.60,7.20,-9.16"/>
    </edge>
    <edge id=":AB0_3" function="internal">
        <lane id=":AB0_3_0" index="0" speed="6.51" length="9.03" shape="107.20,1.60,-9.16 104.75,1.95,-9.16 103.00,3.00,-9.16 101.95,4.75,-9.16 101.60,7.20,-9.16"/>
    </edge>
    <edge id=":AB0_4" function="internal">
        <lane id=":AB0_4_0" index="0" speed="100.00" length="14.40" shape="107.20,1.60,-9.16 92.80,1.60,-9.25"/>
    </edge>
    <edge id=":AB0_5" function="internal">
        <lane id=":AB0_5_0" index="0" speed="3.65" length="2.34" shape="107.20,1.60,-9.16 106.00,0.80,-9.16 105.60,0.00,-9.16"/>
    </edge>
    <edge id=":AB0_9" function="internal">
        <lane id=":AB0_9_0" index="0" speed="3.65" length="2.34" shape="105.60,0.00,-9.16 106.00,-0.80,-9.16 107.20,-1.60,-9.16"/>
    </edge>
    <edge id=":AB0_6" function="internal">
        <lane id=":AB0_6_0" index="0" speed="100.00" length="14.40" shape="92.80,-1.60,-9.25 107.20,-1.60,-9.16"/>
    </edge>
    <edge id=":AB0_7" function="internal">
        <lane id=":AB0_7_0" index="0" speed="8.00" length="5.93" shape="92.80,-1.60,-9.25 96.65,-1.05,-9.23 98.40,-0.00,-9.22"/>
    </edge>
    <edge id=":AB0_8" function="internal">
        <lane id=":AB0_8_0" index="0" speed="3.65" length="2.34" shape="92.80,-1.60,-9.25 94.00,-0.80,-9.25 94.40,0.00,-9.25"/>
    </edge>
    <edge id=":AB0_10" function="internal">
        <lane id=":AB0_10_0" index="0" speed="8.00" length="8.26" shape="98.40,-0.00,-9.22 99.40,0.60,-9.21 101.05,3.35,-9.19 101.60,7.20,-9.16"/>
    </edge>
    <edge id=":AB0_11" function="internal">
        <lane id=":AB0_11_0" index="0" speed="3.65" length="2.34" shape="94.40,0.00,-9.25 94.00,0.80,-9.25 92.80,1.60,-9.25"/>
    </edge>
    <edge id=":AB1_0" function="internal">
        <lane id=":AB1_0_0" index="0" speed="100.00" length="14.40" shape="107.20,101.60,-3.35 92.80,101.60,-3.35"/>
    </edge>
    <edge id=":AB1_1" function="internal">
        <lane id=":AB1_1_0" index="0" speed="8.00" length="5.93" shape="107.20,101.60,-3.35 103.35,101.05,-3.35 101.60,100.00,-3.35"/>
    </edge>
    <edge id=":AB1_2" function="internal">
        <lane id=":AB1_2_0" index="0" speed="3.65" length="2.34" shape="107.20,101.60,-3.35 106.00,100.80,-3.35 105.60,100.00,-3.35"/>
    </edge>
    <edge id=":AB1_9" function="internal">
        <lane id=":AB1_9_0" index="0" speed="8.00" length="8.26" shape="101.60,100.00,-3.35 100.60,99.40,-3.35 98.95,96.65,-3.35 98.40,92.80,-3.35"/>
    </edge>
    <edge id=":AB1_10" function="internal">
        <lane id=":AB1_10_0" index="0" speed="3.65" length="2.34" shape="105.60,100.00,-3.35 106.00,99.20,-3.35 107.20,98.40,-3.35"/>
    </edge>
    <edge id=":AB1_3" function="internal">
        <lane id=":AB1_3_0" index="0" speed="6.51" length="9.03" shape="101.60,92.80,-3.35 101.95,95.25,-3.35 103.00,97.00,-3.35 104.75,98.05,-3.35 107.20,98.40,-3.35"/>
    </edge>
    <edge id=":AB1_4" function="internal">
        <lane id=":AB1_4_0" index="0" speed="8.00" length="14.19" shape="101.60,92.80,-3.35 101.05,96.65,-3.35 99.40,99.40,-3.35 96.65,101.05,-3.35 92.80,101.60,-3.35"/>
    </edge>
    <edge id=":AB1_5" function="internal">
        <lane id=":AB1_5_0" index="0" speed="3.65" length="4.67" shape="101.60,92.80,-3.35 100.80,94.00,-3.35 100.00,94.40,-3.35 99.20,94.00,-3.35 98.40,92.80,-3.35"/>
    </edge>
    <edge id=":AB1_6" function="internal">
        <lane id=":AB1_6_0" index="0" speed="6.51" length="9.03" shape="92.80,98.40,-3.35 95.25,98.05,-3.35 97.00,97.00,-3.35 98.05,95.25,-3.35 98.40,92.80,-3.35"/>
    </edge>
    <edge id=":AB1_7" function="internal">
        <lane id=":AB1_7_0" index="0" speed="100.00" length="14.40" shape="92.80,98.40,-3.35 107.20,98.40,-3.35"/>
    </edge>
    <edge id=":AB1_8" function="internal">
        <lane id=":AB1_8_0" index="0" speed="3.65" length="2.34" shape="92.80,98.40,-3.35 94.00,99.20,-3.35 94.40,100.00,-3.35"/>
    </edge>
    <edge id=":AB1_11" function="internal">
        <lane id=":AB1_11_0" index="0" speed="3.65" length="2.34" shape="94.40,100.00,-3.35 94.00,100.80,-3.35 92.80,101.60,-3.35"/>
    </edge>
    <edge id=":AC0_0" function="internal">
        <lane id=":AC0_0_0" index="0" speed="6.51" length="9.03" shape="198.40,7.20,45.46 198.05,4.75,45.46 197.00,3.00,45.46 195.25,1.95,45.46 192.80,1.60,45.46"/>
    </edge>
    <edge id=":AC0_1" function="internal">
        <lane id=":AC0_1_0" index="0" speed="8.00" length="14.19" shape="198.40,7.20,45.46 198.95,3.35,45.46 200.60,0.60,45.46 203.35,-1.05,45.46 207.20,-1.60,45.46"/>
    </edge>
    <edge id=":AC0_2" function="internal">
        <lane id=":AC0_2_0" index="0" speed="3.65" length="4.67" shape="198.40,7.20,45.46 199.20,6.00,45.46 200.00,5.60,45.46 200.80,6.00,45.46 201.60,7.20,45.46"/>
    </edge>
    <edge id=":AC0_3" function="internal">
        <lane id=":AC0_3_0" index="0" speed="6.51" length="9.03" shape="207.20,1.60,45.46 204.75,1.95,45.46 203.00,3.00,45.46 201.95,4.75,45.46 201.60,7.20,45.46"/>
    </edge>
    <edge id=":AC0_4" function="internal">
        <lane id=":AC0_4_0" index="0" speed="100.00" length="14.40" shape="207.20,1.60,45.46 192.80,1.60,45.46"/>
    </edge>
    <edge id=":AC0_5" function="internal">
        <lane id=":AC0_5_0" index="0" speed="3.65" length="2.34" shape="207.20,1.60,45.46 206.00,0.80,45.46 205.60,0.00,45.46"/>
    </edge>
    <edge id=":AC0_9" function="internal">
        <lane id=":AC0_9_0" index="0" speed="3.65" length="2.34" shape="205.60,0.00,45.46 206.00,-0.80,45.46 207.20,-1.60,45.46"/>
    </edge>
    <edge id=":AC0_6" function="internal">
        <lane id=":AC0_6_0" index="0" speed="100.00" length="14.40" shape="192.80,-1.60,45.46 207.20,-1.60,45.46"/>
    </edge>
    <edge id=":AC0_7" function="internal">
        <lane id=":AC0_7_0" index="0" speed="8.00" length="5.93" shape="192.80,-1.60,45.46 196.65,-1.05,45.46 198.40,0.00,45.46"/>
    </edge>
    <edge id=":AC0_8" function="internal">
        <lane id=":AC0_8_0" index="0" speed="3.65" length="2.34" shape="192.80,-1.60,45.46 194.00,-0.80,45.46 194.40,0.00,45.46"/>
    </edge>
    <edge id=":AC0_10" function="internal">
        <lane id=":AC0_10_0" index="0" speed="8.00" length="8.26" shape="198.40,0.00,45.46 199.40,0.60,45.46 201.05,3.35,45.46 201.60,7.20,45.46"/>
    </edge>
    <edge id=":AC0_11" function="internal">
        <lane id=":AC0_11_0" index="0" speed="3.65" length="2.34" shape="194.40,0.00,45.46 194.00,0.80,45.46 192.80,1.60,45.46"/>
    </edge>
    <edge id=":AC1_0" function="internal">
        <lane id=":AC1_0_0" index="0" speed="100.00" length="14.40" shape="207.20,101.60,12.26 192.80,101.60,12.26"/>
    </edge>
    <edge id=":AC1_1" function="internal">
        <lane id=":AC1_1_0" index="0" speed="8.00" length="5.93" shape="207.20,101.60,12.26 203.35,101.05,12.26 201.60,100.00,12.26"/>
    </edge>
    <edge id=":AC1_2" function="internal">
        <lane id=":AC1_2_0" index="0" speed="3.65" length="2.34" shape="207.20,101.60,12.26 206.00,100.80,12.26 205.60,100.00,12.26"/>
    </edge>
    <edge id=":AC1_9" function="internal">
        <lane id=":AC1_9_0" index="0" speed="8.00" length="8.26" shape="201.60,100.00,12.26 200.60,99.40,12.26 198.95,96.65,12.26 198.40,92.80,12.26"/>
    </edge>
    <edge id=":AC1_10" function="internal">
        <lane id=":AC1_10_0" index="0" speed="3.65" length="2.34" shape="205.60,100.00,12.26 206.00,99.20,12.26 207.20,98.40,12.26"/>
    </edge>
    <edge id=":AC1_3" function="internal">
        <lane id=":AC1_3_0" index="0" speed="6.51" length="9.03" shape="201.60,92.80,12.26 201.95,95.25,12.26 203.00,97.00,12.26 204.75,98.05,12.26 207.20,98.40,12.26"/>
    </edge>
    <edge id=":AC1_4" function="internal">
        <lane id=":AC1_4_0" index="0" speed="8.00" length="14.19" shape="201.60,92.80,12.26 201.05,96.65,12.26 199.40,99.40,12.26 196.65,101.05,12.26 192.80,101.60,12.26"/>
    </edge>
    <edge id=":AC1_5" function="internal">
        <lane id=":AC1_5_0" index="0" speed="3.65" length="4.67" shape="201.60,92.80,12.26 200.80,94.00,12.26 200.00,94.40,12.26 199.20,94.00,12.26 198.40,92.80,12.26"/>
    </edge>
    <edge id=":AC1_6" function="internal">
        <lane id=":AC1_6_0" index="0" speed="6.51" length="9.03" shape="192.80,98.40,12.26 195.25,98.05,12.26 197.00,97.00,12.26 198.05,95.25,12.26 198.40,92.80,12.26"/>
    </edge>
    <edge id=":AC1_7" function="internal">
        <lane id=":AC1_7_0" index="0" speed="100.00" length="14.40" shape="192.80,98.40,12.26 207.20,98.40,12.26"/>
    </edge>
    <edge id=":AC1_8" function="internal">
        <lane id=":AC1_8_0" index="0" speed="3.65" length="2.34" shape="192.80,98.40,12.26 194.00,99.20,12.26 194.40,100.00,12.26"/>
    </edge>
    <edge id=":AC1_11" function="internal">
        <lane id=":AC1_11_0" index="0" speed="3.65" length="2.34" shape="194.40,100.00,12.26 194.00,100.80,12.26 192.80,101.60,12.26"/>
    </edge>
    <edge id=":AD0_0" function="internal">
        <lane id=":AD0_0_0" index="0" speed="6.51" length="9.03" shape="298.40,7.20,3.76 298.05,4.75,3.76 297.00,3.00,3.76 295.25,1.95,3.76 292.80,1.60,3.76"/>
    </edge>
    <edge id=":AD0_1" function="internal">
        <lane id=":AD0_1_0" index="0" speed="8.00" length="14.19" shape="298.40,7.20,3.76 298.95,3.35,3.76 300.60,0.60,3.76 303.35,-1.05,3.76 307.20,-1.60,3.76"/>
    </edge>
    <edge id=":AD0_2" function="internal">
        <lane id=":AD0_2_0" index="0" speed="3.65" length="4.67" shape="298.40,7.20,3.76 299.20,6.00,3.76 300.00,5.60,3.76 300.80,6.00,3.76 301.60,7.20,3.76"/>
    </edge>
    <edge id=":AD0_3" function="internal">
        <lane id=":AD0_3_0" index="0" speed="6.51" length="9.03" shape="307.20,1.60,3.76 304.75,1.95,3.76 303.00,3.00,3.76 301.95,4.75,3.76 301.60,7.20,3.76"/>
    </edge>
    <edge id=":AD0_4" function="internal">
        <lane id=":AD0_4_0" index="0" speed="100.00" length="14.40" shape="307.20,1.60,3.76 292.80,1.60,3.76"/>
    </edge>
    <edge id=":AD0_5" function="internal">
        <lane id=":AD0_5_0" index="0" speed="3.65" length="2.34" shape="307.20,1.60,3.76 306.00,0.80,3.76 305.60,0.00,3.76"/>
    </edge>
    <edge id=":AD0_9" function="internal">
        <lane id=":AD0_9_0" index="0" speed="3.65" length="2.34" shape="305.60,0.00,3.76 306.00,-0.80,3.76 307.20,-1.60,3.76"/>
    </edge>
    <edge id=":AD0_6" function="internal">
        <lane id=":AD0_6_0" index="0" speed="100.00" length="14.40" shape="292.80,-1.60,3.76 307.20,-1.60,3.76"/>
    </edge>
    <edge id=":AD0_7" function="internal">
        <lane id=":AD0_7_0" index="0" speed="8.00" length="5.93" shape="292.80,-1.60,3.76 296.65,-1.05,3.76 298.40,-0.00,3.76"/>
    </edge>
    <edge id=":AD0_8" function="internal">
        <lane id=":AD0_8_0" index="0" speed="3.65" length="2.34" shape="292.80,-1.60,3.76 294.00,-0.80,3.76 294.40,0.00,3.76"/>
    </edge>
    <edge id=":AD0_10" function="internal">
        <lane id=":AD0_10_0" index="0" speed="8.00" length="8.26" shape="298.40,-0.00,3.76 299.40,0.60,3.76 301.05,3.35,3.76 301.60,7.20,3.76"/>
    </edge>
    <edge id=":AD0_11" function="internal">
        <lane id=":AD0_11_0" index="0" speed="3.65" length="2.34" shape="294.40,0.00,3.76 294.00,0.80,3.76 292.80,1.60,3.76"/>
    </edge>
    <edge id=":AD1_0" function="internal">
        <lane id=":AD1_0_0" index="0" speed="100.00" length="14.40" shape="307.20,101.60,19.97 292.80,101.60,19.97"/>
    </edge>
    <edge id=":AD1_1" function="internal">
        <lane id=":AD1_1_0" index="0" speed="8.00" length="5.93" shape="307.20,101.60,19.97 303.35,101.05,19.97 301.60,100.00,19.97"/>
    </edge>
    <edge id=":AD1_2" function="internal">
        <lane id=":AD1_2_0" index="0" speed="3.65" length="2.34" shape="307.20,101.60,19.97 306.00,100.80,19.97 305.60,100.00,19.97"/>
    </edge>
    <edge id=":AD1_9" function="internal">
        <lane id=":AD1_9_0" index="0" speed="8.00" length="8.26" shape="301.60,100.00,19.97 300.60,99.40,19.97 298.95,96.65,19.97 298.40,92.80,19.97"/>
    </edge>
    <edge id=":AD1_10" function="internal">
        <lane id=":AD1_10_0" index="0" speed="3.65" length="2.34" shape="305.60,100.00,19.97 306.00,99.20,19.97 307.20,98.40,19.97"/>
    </edge>
    <edge id=":AD1_3" function="internal">
        <lane id=":AD1_3_0" index="0" speed="6.51" length="9.03" shape="301.60,92.80,19.97 301.95,95.25,19.97 303.00,97.00,19.97 304.75,98.05,19.97 307.20,98.40,19.97"/>
    </edge>
    <edge id=":AD1_4" function="internal">
        <lane id=":AD1_4_0" index="0" speed="8.00" length="14.19" shape="301.60,92.80,19.97 301.05,96.65,19.97 299.40,99.40,19.97 296.65,101.05,19.97 292.80,101.60,19.97"/>
    </edge>
    <edge id=":AD1_5" function="internal">
        <lane id=":AD1_5_0" index="0" speed="3.65" length="4.67" shape="301.60,92.80,19.97 300.80,94.00,19.97 300.00,94.40,19.97 299.20,94.00,19.97 298.40,92.80,19.97"/>
    </edge>
    <edge id=":AD1_6" function="internal">
        <lane id=":AD1_6_0" index="0" speed="6.51" length="9.03" shape="292.80,98.40,19.97 295.25,98.05,19.97 297.00,97.00,19.97 298.05,95.25,19.97 298.40,92.80,19.97"/>
    </edge>
    <edge id=":AD1_7" function="internal">
        <lane id=":AD1_7_0" index="0" speed="100.00" length="14.40" shape="292.80,98.40,19.97 307.20,98.40,19.97"/>
    </edge>
    <edge id=":AD1_8" function="internal">
        <lane id=":AD1_8_0" index="0" speed="3.65" length="2.34" shape="292.80,98.40,19.97 294.00,99.20,19.97 294.40,100.00,19.97"/>
    </edge>
    <edge id=":AD1_11" function="internal">
        <lane id=":AD1_11_0" index="0" speed="3.65" length="2.34" shape="294.40,100.00,19.97 294.00,100.80,19.97 292.80,101.60,19.97"/>
    </edge>
    <edge id=":AE0_0" function="internal">
        <lane id=":AE0_0_0" index="0" speed="6.51" length="9.03" shape="398.40,7.20,9.26 398.05,4.75,9.25 397.00,3.00,9.24 395.25,1.95,9.23 392.80,1.60,9.21"/>
    </edge>
    <edge id=":AE0_1" function="internal">
        <lane id=":AE0_1_0" index="0" speed="8.00" length="14.19" shape="398.40,7.20,9.26 398.95,3.35,9.25 400.60,0.60,9.24 403.35,-1.05,9.23 407.20,-1.60,9.21"/>
    </edge>
    <edge id=":AE0_2" function="internal">
        <lane id=":AE0_2_0" index="0" speed="3.65" length="4.67" shape="398.40,7.20,9.26 399.20,6.00,9.26 400.00,5.60,9.26 400.80,6.00,9.26 401.60,7.20,9.26"/>
    </edge>
    <edge id=":AE0_3" function="internal">
        <lane id=":AE0_3_0" index="0" speed="6.51" length="9.03" shape="407.20,1.60,9.21 404.75,1.95,9.23 403.00,3.00,9.24 401.95,4.75,9.25 401.60,7.20,9.26"/>
    </edge>
    <edge id=":AE0_4" function="internal">
        <lane id=":AE0_4_0" index="0" speed="100.00" length="14.40" shape="407.20,1.60,9.21 392.80,1.60,9.21"/>
    </edge>
    <edge id=":AE0_5" function="internal">
        <lane id=":AE0_5_0" index="0" speed="3.65" length="2.34" shape="407.20,1.60,9.21 406.00,0.80,9.21 405.60,0.00,9.21"/>
    </edge>
    <edge id=":AE0_9" function="internal">
        <lane id=":AE0_9_0" index="0" speed="3.65" length="2.34" shape="405.60,0.00,9.21 406.00,-0.80,9.21 407.20,-1.60,9.21"/>
    </edge>
    <edge id=":AE0_6" function="internal">
        <lane id=":AE0_6_0" index="0" speed="100.00" length="14.40" shape="392.80,-1.60,9.21 407.20,-1.60,9.21"/>
    </edge>
    <edge id=":AE0_7" function="internal">
        <lane id=":AE0_7_0" index="0" speed="8.00" length="5.93" shape="392.80,-1.60,9.21 396.65,-1.05,9.23 398.40,-0.00,9.23"/>
    </edge>
    <edge id=":AE0_8" function="internal">
        <lane id=":AE0_8_0" index="0" speed="3.65" length="2.34" shape="392.80,-1.60,9.21 394.00,-0.80,9.21 394.40,0.00,9.21"/>
    </edge>
    <edge id=":AE0_10" function="internal">
        <lane id=":AE0_10_0" index="0" speed="8.00" length="8.26" shape="398.40,-0.00,9.23 399.40,0.60,9.24 401.05,3.35,9.25 401.60,7.20,9.26"/>
    </edge>
    <edge id=":AE0_11" function="internal">
        <lane id=":AE0_11_0" index="0" speed="3.65" length="2.34" shape="394.40,0.00,9.21 394.00,0.80,9.21 392.80,1.60,9.21"/>
    </edge>
    <edge id=":AE1_0" function="internal">
        <lane id=":AE1_0_0" index="0" speed="100.00" length="14.40" shape="407.20,101.60,9.92 392.80,101.60,9.92"/>
    </edge>
    <edge id=":AE1_1" function="internal">
        <lane id=":AE1_1_0" index="0" speed="8.00" length="5.93" shape="407.20,101.60,9.92 403.35,101.05,9.90 401.60,100.00,9.90"/>
    </edge>
    <edge id=":AE1_2" function="internal">
        <lane id=":AE1_2_0" index="0" speed="3.65" length="2.34" shape="407.20,101.60,9.92 406.00,100.80,9.92 405.60,100.00,9.92"/>
    </edge>
    <edge id=":AE1_9" function="internal">
        <lane id=":AE1_9_0" index="0" speed="8.00" length="8.26" shape="401.60,100.00,9.90 400.60,99.40,9.89 398.95,96.65,9.88 398.40,92.80,9.87"/>
    </edge>
    <edge id=":AE1_10" function="internal">
        <lane id=":AE1_10_0" index="0" speed="3.65" length="2.34" shape="405.60,100.00,9.92 406.00,99.20,9.92 407.20,98.40,9.92"/>
    </edge>
    <edge id=":AE1_3" function="internal">
        <lane id=":AE1_3_0" index="0" speed="6.51" length="9.03" shape="401.60,92.80,9.87 401.95,95.25,9.88 403.00,97.00,9.89 404.75,98.05,9.90 407.20,98.40,9.92"/>
    </edge>
    <edge id=":AE1_4" function="internal">
        <lane id=":AE1_4_0" index="0" speed="8.00" length="14.19" shape="401.60,92.80,9.87 401.05,96.65,9.88 399.40,99.40,9.89 396.65,101.05,9.90 392.80,101.60,9.92"/>
    </edge>
    <edge id=":AE1_5" function="internal">
        <lane id=":AE1_5_0" index="0" speed="3.65" length="4.67" shape="401.60,92.80,9.87 400.80,94.00,9.87 400.00,94.40,9.87 399.20,94.00,9.87 398.40,92.80,9.87"/>
    </edge>
    <edge id=":AE1_6" function="internal">
        <lane id=":AE1_6_0" index="0" speed="6.51" length="9.03" shape="392.80,98.40,9.92 395.25,98.05,9.90 397.00,97.00,9.89 398.05,95.25,9.88 398.40,92.80,9.87"/>
    </edge>
    <edge id=":AE1_7" function="internal">
        <lane id=":AE1_7_0" index="0" speed="100.00" length="14.40" shape="392.80,98.40,9.92 407.20,98.40,9.92"/>
    </edge>
    <edge id=":AE1_8" function="internal">
        <lane id=":AE1_8_0" index="0" speed="3.65" length="2.34" shape="392.80,98.40,9.92 394.00,99.20,9.92 394.40,100.00,9.92"/>
    </edge>
    <edge id=":AE1_11" function="internal">
        <lane id=":AE1_11_0" index="0" speed="3.65" length="2.34" shape="394.40,100.00,9.92 394.00,100.80,9.92 392.80,101.60,9.92"/>
    </edge>
    <edge id=":AF0_0" function="internal">
        <lane id=":AF0_0_0" index="0" speed="6.51" length="9.03" shape="498.40,7.20,-15.38 498.05,4.75,-15.38 497.00,3.00,-15.38 495.25,1.95,-15.38 492.80,1.60,-15.38"/>
    </edge>
    <edge id=":AF0_1" function="internal">
        <lane id=":AF0_1_0" index="0" speed="8.00" length="14.19" shape="498.40,7.20,-15.38 498.95,3.35,-15.38 500.60,0.60,-15.38 503.35,-1.05,-15.38 507.20,-1.60,-15.38"/>
    </edge>
    <edge id=":AF0_2" function="internal">
        <lane id=":AF0_2_0" index="0" speed="3.65" length="4.67" shape="498.40,7.20,-15.38 499.20,6.00,-15.38 500.00,5.60,-15.38 500.80,6.00,-15.38 501.60,7.20,-15.38"/>
    </edge>
    <edge id=":AF0_3" function="internal">
        <lane id=":AF0_3_0" index="0" speed="6.51" length="9.03" shape="507.20,1.60,-15.38 504.75,1.95,-15.38 503.00,3.00,-15.38 501.95,4.75,-15.38 501.60,7.20,-15.38"/>
    </edge>
    <edge id=":AF0_4" function="internal">
        <lane id=":AF0_4_0" index="0" speed="100.00" length="14.40" shape="507.20,1.60,-15.38 492.80,1.60,-15.38"/>
    </edge>
    <edge id=":AF0_5" function="internal">
        <lane id=":AF0_5_0" index="0" speed="3.65" length="2.34" shape="507.20,1.60,-15.38 506.00,0.80,-15.38 505.60,0.00,-15.38"/>
    </edge>
    <edge id=":AF0_9" function="internal">
        <lane id=":AF0_9_0" index="0" speed="3.65" length="2.34" shape="505.60,0.00,-15.38 506.00,-0.80,-15.38 507.20,-1.60,-15.38"/>
    </edge>
    <edge id=":AF0_6" function="internal">
        <lane id=":AF0_6_0" index="0" speed="100.00" length="14.40" shape="492.80,-1.60,-15.38 507.20,-1.60,-15.38"/>
    </edge>
    <edge id=":AF0_7" function="internal">
        <lane id=":AF0_7_0" index="0" speed="8.00" length="5.93" shape="492.80,-1.60,-15.38 496.65,-1.05,-15.38 498.40,-0.00,-15.38"/>
    </edge>
    <edge id=":AF0_8" function="internal">
        <lane id=":AF0_8_0" index="0" speed="3.65" length="2.34" shape="492.80,-1.60,-15.38 494.00,-0.80,-15.38 494.40,0.00,-15.38"/>
    </edge>
    <edge id=":AF0_10" function="internal">
        <lane id=":AF0_10_0" index="0" speed="8.00" length="8.26" shape="498.40,-0.00,-15.38 499.40,0.60,-15.38 501.05,3.35,-15.38 501.60,7.20,-15.38"/>
    </edge>
    <edge id=":AF0_11" function="internal">
        <lane id=":AF0_11_0" index="0" speed="3.65" length="2.34" shape="494.40,0.00,-15.38 494.00,0.80,-15.38 492.80,1.60,-15.38"/>
    </edge>
    <edge id=":AF1_0" function="internal">
        <lane id=":AF1_0_0" index="0" speed="100.00" length="14.40" shape="507.20,101.60,25.40 492.80,101.60,25.40"/>
    </edge>
    <edge id=":AF1_1" function="internal">
        <lane id=":AF1_1_0" index="0" speed="8.00" length="5.93" shape="507.20,101.60,25.40 503.35,101.05,25.40 501.60,100.00,25.40"/>
    </edge>
    <edge id=":AF1_2" function="internal">
        <lane id=":AF1_2_0" index="0" speed="3.65" length="2.34" shape="507.20,101.60,25.40 506.00,100.80,25.40 505.60,100.00,25.40"/>
    </edge>
    <edge id=":AF1_9" function="internal">
        <lane id=":AF1_9_0" index="0" speed="8.00" length="8.26" shape="501.60,100.00,25.40 500.60,99.40,25.40 498.95,96.65,25.40 498.40,92.80,25.40"/>
    </edge>
    <edge id=":AF1_10" function="internal">
        <lane id=":AF1_10_0" index="0" speed="3.65" length="2.34" shape="505.60,100.00,25.40 506.00,99.20,25.40 507.20,98.40,25.40"/>
    </edge>
    <edge id=":AF1_3" function="internal">
        <lane id=":AF1_3_0" index="0" speed="6.51" length="9.03" shape="501.60,92.80,25.40 501.95,95.25,25.40 503.00,97.00,25.40 504.75,98.05,25.40 507.20,98.40,25.40"/>
    </edge>
    <edge id=":AF1_4" function="internal">
        <lane id=":AF1_4_0" index="0" speed="8.00" length="14.19" shape="501.60,92.80,25.40 501.05,96.65,25.40 499.40,99.40,25.40 496.65,101.05,25.40 492.80,101.60,25.40"/>
    </edge>
    <edge id=":AF1_5" function="internal">
        <lane id=":AF1_5_0" index="0" speed="3.65" length="4.67" shape="501.60,92.80,25.40 500.80,94.00,25.40 500.00,94.40,25.40 499.20,94.00,25.40 498.40,92.80,25.40"/>
    </edge>
    <edge id=":AF1_6" function="internal">
        <lane id=":AF1_6_0" index="0" speed="6.51" length="9.03" shape="492.80,98.40,25.40 495.25,98.05,25.40 497.00,97.00,25.40 498.05,95.25,25.40 498.40,92.80,25.40"/>
    </edge>
    <edge id=":AF1_7" function="internal">
        <lane id=":AF1_7_0" index="0" speed="100.00" length="14.40" shape="492.80,98.40,25.40 507.20,98.40,25.40"/>
    </edge>
    <edge id=":AF1_8" function="internal">
        <lane id=":AF1_8_0" index="0" speed="3.65" length="2.34" shape="492.80,98.40,25.40 494.00,99.20,25.40 494.40,100.00,25.40"/>
    </edge>
    <edge id=":AF1_11" function="internal">
        <lane id=":AF1_11_0" index="0" speed="3.65" length="2.34" shape="494.40,100.00,25.40 494.00,100.80,25.40 492.80,101.60,25.40"/>
    </edge>
    <edge id=":AG0_0" function="internal">
        <lane id=":AG0_0_0" index="0" speed="6.51" length="9.03" shape="598.40,7.20,18.45 598.05,4.75,18.41 597.00,3.00,18.38 595.25,1.95,18.35 592.80,1.60,18.31"/>
    </edge>
    <edge id=":AG0_1" function="internal">
        <lane id=":AG0_1_0" index="0" speed="8.00" length="14.19" shape="598.40,7.20,18.45 598.95,3.35,18.41 600.60,0.60,18.38 603.35,-1.05,18.35 607.20,-1.60,18.31"/>
    </edge>
    <edge id=":AG0_2" function="internal">
        <lane id=":AG0_2_0" index="0" speed="3.65" length="4.67" shape="598.40,7.20,18.45 599.20,6.00,18.45 600.00,5.60,18.45 600.80,6.00,18.45 601.60,7.20,18.45"/>
    </edge>
    <edge id=":AG0_3" function="internal">
        <lane id=":AG0_3_0" index="0" speed="6.51" length="9.03" shape="607.20,1.60,18.31 604.75,1.95,18.35 603.00,3.00,18.38 601.95,4.75,18.41 601.60,7.20,18.45"/>
    </edge>
    <edge id=":AG0_4" function="internal">
        <lane id=":AG0_4_0" index="0" speed="100.00" length="14.40" shape="607.20,1.60,18.31 592.80,1.60,18.31"/>
    </edge>
    <edge id=":AG0_5" function="internal">
        <lane id=":AG0_5_0" index="0" speed="3.65" length="2.34" shape="607.20,1.60,18.31 606.00,0.80,18.31 605.60,0.00,18.31"/>
    </edge>
    <edge id=":AG0_9" function="internal">
        <lane id=":AG0_9_0" index="0" speed="3.65" length="2.34" shape="605.60,0.00,18.31 606.00,-0.80,18.31 607.20,-1.60,18.31"/>
    </edge>
    <edge id=":AG0_6" function="internal">
        <lane id=":AG0_6_0" index="0" speed="100.00" length="14.40" shape="592.80,-1.60,18.31 607.20,-1.60,18.31"/>
    </edge>
    <edge id=":AG0_7" function="internal">
        <lane id=":AG0_7_0" index="0" speed="8.00" length="5.93" shape="592.80,-1.60,18.31 596.65,-1.05,18.35 598.40,-0.00,18.37"/>
    </edge>
    <edge id=":AG0_8" function="internal">
        <lane id=":AG0_8_0" index="0" speed="3.65" length="2.34" shape="592.80,-1.60,18.31 594.00,-0.80,18.31 594.40,0.00,18.31"/>
    </edge>
    <edge id=":AG0_10" function="internal">
        <lane id=":AG0_10_0" index="0" speed="8.00" length="8.26" shape="598.40,-0.00,18.37 599.40,0.60,18.38 601.05,3.35,18.41 601.60,7.20,18.45"/>
    </edge>
    <edge id=":AG0_11" function="internal">
        <lane id=":AG0_11_0" index="0" speed="3.65" length="2.34" shape="594.40,0.00,18.31 594.00,0.80,18.31 592.80,1.60,18.31"/>
    </edge>
    <edge id=":AG1_0" function="internal">
        <lane id=":AG1_0_0" index="0" speed="100.00" length="14.40" shape="607.20,101.60,20.30 592.80,101.60,20.30"/>
    </edge>
    <edge id=":AG1_1" function="internal">
        <lane id=":AG1_1_0" index="0" speed="8.00" length="5.93" shape="607.20,101.60,20.30 603.35,101.05,20.26 601.60,100.00,20.24"/>
    </edge>
    <edge id=":AG1_2" function="internal">
        <lane id=":AG1_2_0" index="0" speed="3.65" length="2.34" shape="607.20,101.60,20.30 606.00,100.80,20.30 605.60,100.00,20.30"/>
    </edge>
    <edge id=":AG1_9" function="internal">
        <lane id=":AG1_9_0" index="0" speed="8.00" length="8.26" shape="601.60,100.00,20.24 600.60,99.40,20.22 598.95,96.65,20.19 598.40,92.80,20.15"/>
    </edge>
    <edge id=":AG1_10" function="internal">
        <lane id=":AG1_10_0" index="0" speed="3.65" length="2.34" shape="605.60,100.00,20.30 606.00,99.20,20.30 607.20,98.40,20.30"/>
    </edge>
    <edge id=":AG1_3" function="internal">
        <lane id=":AG1_3_0" index="0" speed="6.51" length="9.03" shape="601.60,92.80,20.15 601.95,95.25,20.19 603.00,97.00,20.22 604.75,98.05,20.26 607.20,98.40,20.30"/>
    </edge>
    <edge id=":AG1_4" function="internal">
        <lane id=":AG1_4_0" index="0" speed="8.00" length="14.19" shape="601.60,92.80,20.15 601.05,96.65,20.19 599.40,99.40,20.22 596.65,101.05,20.26 592.80,101.60,20.30"/>
    </edge>
    <edge id=":AG1_5" function="internal">
        <lane id=":AG1_5_0" index="0" speed="3.65" length="4.67" shape="601.60,92.80,20.15 600.80,94.00,20.15 600.00,94.40,20.15 599.20,94.00,20.15 598.40,92.80,20.15"/>
    </edge>
    <edge id=":AG1_6" function="internal">
        <lane id=":AG1_6_0" index="0" speed="6.51" length="9.03" shape="592.80,98.40,20.30 595.25,98.05,20.26 597.00,97.00,20.22 598.05,95.25,20.19 598.40,92.80,20.15"/>
    </edge>
    <edge id=":AG1_7" function="internal">
        <lane id=":AG1_7_0" index="0" speed="100.00" length="14.40" shape="592.80,98.40,20.30 607.20,98.40,20.30"/>
    </edge>